  Page 1                                    Mon Sep 20 12:08:56 2021

  ******************************************************************
  *                           E P A N E T                          *
  *                   Hydraulic and Water Quality                  *
  *                   Analysis for Pipe Networks                   *
  *                         Version 2.2                            *
  ******************************************************************
  
  Analysis begun Mon Sep 20 12:08:56 2021

   
  Hydraulic Status:
  -----------------------------------------------------------------------
     0:00:00: Balanced after 5 trials
     0:00:00: Reservoir River is emptying
     0:00:00: Reservoir Lake is closed
     0:00:00: Tank 1 is filling at 13.10 ft
     0:00:00: Tank 2 is emptying at 23.50 ft
     0:00:00: Tank 3 is filling at 29.00 ft
   
     0:01:00: Balanced after 1 trials
   
     0:02:00: Balanced after 1 trials
   
     0:03:00: Balanced after 1 trials
   
     0:04:00: Balanced after 1 trials
   
     0:05:00: Balanced after 1 trials
   
     0:06:00: Balanced after 1 trials
   
     0:07:00: Balanced after 1 trials
   
     0:08:00: Balanced after 1 trials
   
     0:09:00: Balanced after 1 trials
   
     0:10:00: Balanced after 1 trials
   
     0:11:00: Balanced after 1 trials
   
     0:12:00: Balanced after 1 trials
   
     0:13:00: Balanced after 1 trials
   
     0:14:00: Balanced after 1 trials
   
     0:15:00: Balanced after 1 trials
   
     0:16:00: Balanced after 1 trials
   
     0:17:00: Balanced after 1 trials
   
     0:18:00: Balanced after 1 trials
   
     0:19:00: Balanced after 1 trials
   
     0:20:00: Balanced after 1 trials
   
     0:21:00: Balanced after 1 trials
   
     0:22:00: Balanced after 1 trials
   
     0:23:00: Balanced after 1 trials
   
     0:24:00: Balanced after 1 trials
   
     0:25:00: Balanced after 1 trials
   
     0:26:00: Balanced after 1 trials
   
     0:27:00: Balanced after 1 trials
   
     0:28:00: Balanced after 1 trials
   
     0:29:00: Balanced after 1 trials
   
     0:30:00: Balanced after 1 trials
   
     0:31:00: Balanced after 1 trials
   
     0:32:00: Balanced after 1 trials
   
     0:33:00: Balanced after 1 trials
   
     0:34:00: Balanced after 1 trials
   
     0:35:00: Balanced after 1 trials
   
     0:36:00: Balanced after 1 trials
   
     0:37:00: Balanced after 1 trials
   
     0:38:00: Balanced after 1 trials
   
     0:39:00: Balanced after 1 trials
   
     0:40:00: Balanced after 1 trials
   
     0:41:00: Balanced after 1 trials
   
     0:42:00: Balanced after 1 trials
   
     0:43:00: Balanced after 1 trials
   
     0:44:00: Balanced after 1 trials
   
     0:45:00: Balanced after 1 trials
   
     0:46:00: Balanced after 1 trials
   
     0:47:00: Balanced after 1 trials
   
     0:48:00: Balanced after 1 trials
   
     0:49:00: Balanced after 1 trials
   
     0:50:00: Balanced after 1 trials
   
     0:51:00: Balanced after 1 trials
   
     0:52:00: Balanced after 1 trials
   
     0:53:00: Balanced after 1 trials
   
     0:54:00: Balanced after 1 trials
   
     0:55:00: Balanced after 1 trials
   
     0:56:00: Balanced after 1 trials
   
     0:57:00: Balanced after 1 trials
   
     0:58:00: Balanced after 1 trials
   
     0:59:00: Balanced after 1 trials
   
     1:00:00: Balanced after 7 trials
     1:00:00: Reservoir Lake is emptying
     1:00:00: Pump 10 changed from closed to open
   
     1:01:00: Balanced after 1 trials
   
     1:02:00: Balanced after 1 trials
   
     1:03:00: Balanced after 1 trials
   
     1:04:00: Balanced after 1 trials
   
     1:05:00: Balanced after 1 trials
   
     1:06:00: Balanced after 1 trials
   
     1:07:00: Balanced after 1 trials
   
     1:08:00: Balanced after 1 trials
   
     1:09:00: Balanced after 1 trials
   
     1:10:00: Balanced after 1 trials
   
     1:11:00: Balanced after 1 trials
   
     1:12:00: Balanced after 1 trials
   
     1:13:00: Balanced after 1 trials
   
     1:14:00: Balanced after 1 trials
   
     1:15:00: Balanced after 1 trials
   
     1:16:00: Balanced after 1 trials
   
     1:17:00: Balanced after 1 trials
   
     1:18:00: Balanced after 1 trials
   
     1:19:00: Balanced after 1 trials
   
     1:20:00: Balanced after 1 trials
   
     1:21:00: Balanced after 1 trials
   
     1:22:00: Balanced after 1 trials
   
     1:23:00: Balanced after 1 trials
   
     1:24:00: Balanced after 1 trials
   
     1:25:00: Balanced after 1 trials
   
     1:26:00: Balanced after 1 trials
   
     1:27:00: Balanced after 1 trials
   
     1:28:00: Balanced after 1 trials
   
     1:29:00: Balanced after 1 trials
   
     1:30:00: Balanced after 1 trials
   
     1:31:00: Balanced after 1 trials
   
     1:32:00: Balanced after 1 trials
   
     1:33:00: Balanced after 1 trials
   
     1:34:00: Balanced after 1 trials
   
     1:35:00: Balanced after 1 trials
   
     1:36:00: Balanced after 1 trials
   
     1:37:00: Balanced after 1 trials
   
     1:38:00: Balanced after 1 trials
   
     1:39:00: Balanced after 1 trials
   
     1:40:00: Balanced after 1 trials
   
     1:41:00: Balanced after 1 trials
   
     1:42:00: Balanced after 1 trials
   
     1:43:00: Balanced after 1 trials
   
     1:44:00: Balanced after 1 trials
   
     1:45:00: Balanced after 1 trials
   
     1:46:00: Balanced after 1 trials
   
     1:47:00: Balanced after 1 trials
   
     1:48:00: Balanced after 1 trials
   
     1:49:00: Balanced after 1 trials
   
     1:50:00: Balanced after 1 trials
   
     1:51:00: Balanced after 1 trials
   
     1:52:00: Balanced after 1 trials
   
     1:53:00: Balanced after 1 trials
   
     1:54:00: Balanced after 1 trials
   
     1:55:00: Balanced after 1 trials
   
     1:56:00: Balanced after 1 trials
   
     1:57:00: Balanced after 1 trials
   
     1:58:00: Balanced after 1 trials
   
     1:59:00: Balanced after 1 trials
   
     2:00:00: Balanced after 3 trials
     2:00:00: Tank 2 is filling at 21.30 ft
   
     2:01:00: Balanced after 1 trials
   
     2:02:00: Balanced after 1 trials
   
     2:03:00: Balanced after 1 trials
   
     2:04:00: Balanced after 1 trials
   
     2:05:00: Balanced after 1 trials
   
     2:06:00: Balanced after 1 trials
   
     2:07:00: Balanced after 1 trials
   
     2:08:00: Balanced after 1 trials
   
     2:09:00: Balanced after 1 trials
   
     2:10:00: Balanced after 1 trials
   
     2:11:00: Balanced after 1 trials
   
     2:12:00: Balanced after 1 trials
   
     2:13:00: Balanced after 1 trials
   
     2:14:00: Balanced after 1 trials
   
     2:15:00: Balanced after 1 trials
   
     2:16:00: Balanced after 1 trials
   
     2:17:00: Balanced after 1 trials
   
     2:18:00: Balanced after 1 trials
   
     2:19:00: Balanced after 1 trials
   
     2:20:00: Balanced after 1 trials
   
     2:21:00: Balanced after 1 trials
   
     2:22:00: Balanced after 1 trials
   
     2:23:00: Balanced after 1 trials
   
     2:24:00: Balanced after 1 trials
   
     2:25:00: Balanced after 1 trials
   
     2:26:00: Balanced after 1 trials
   
     2:27:00: Balanced after 1 trials
   
     2:28:00: Balanced after 1 trials
   
     2:29:00: Balanced after 1 trials
   
     2:30:00: Balanced after 1 trials
   
     2:31:00: Balanced after 1 trials
   
     2:32:00: Balanced after 1 trials
   
     2:33:00: Balanced after 1 trials
   
     2:34:00: Balanced after 1 trials
   
     2:35:00: Balanced after 1 trials
   
     2:36:00: Balanced after 1 trials
   
     2:37:00: Balanced after 1 trials
   
     2:38:00: Balanced after 1 trials
   
     2:39:00: Balanced after 1 trials
   
     2:40:00: Balanced after 1 trials
   
     2:41:00: Balanced after 1 trials
   
     2:42:00: Balanced after 1 trials
   
     2:43:00: Balanced after 1 trials
   
     2:44:00: Balanced after 1 trials
   
     2:45:00: Balanced after 1 trials
   
     2:46:00: Balanced after 1 trials
   
     2:47:00: Balanced after 1 trials
   
     2:48:00: Balanced after 1 trials
   
     2:49:00: Balanced after 1 trials
   
     2:50:00: Balanced after 1 trials
   
     2:51:00: Balanced after 1 trials
   
     2:52:00: Balanced after 1 trials
   
     2:53:00: Balanced after 1 trials
   
     2:54:00: Balanced after 1 trials
   
     2:55:00: Balanced after 1 trials
   
     2:56:00: Balanced after 1 trials
   
     2:57:00: Balanced after 1 trials
   
     2:58:00: Balanced after 1 trials
   
     2:59:00: Balanced after 1 trials
   
     3:00:00: Balanced after 2 trials
   
     3:01:00: Balanced after 1 trials
   
     3:02:00: Balanced after 1 trials
   
     3:03:00: Balanced after 1 trials
   
     3:04:00: Balanced after 1 trials
   
     3:05:00: Balanced after 1 trials
   
     3:06:00: Balanced after 1 trials
   
     3:07:00: Balanced after 1 trials
   
     3:08:00: Balanced after 1 trials
   
     3:09:00: Balanced after 1 trials
   
     3:10:00: Balanced after 1 trials
   
     3:11:00: Balanced after 1 trials
   
     3:12:00: Balanced after 1 trials
   
     3:13:00: Balanced after 1 trials
   
     3:14:00: Balanced after 1 trials
   
     3:15:00: Balanced after 1 trials
   
     3:16:00: Balanced after 1 trials
   
     3:17:00: Balanced after 1 trials
   
     3:18:00: Balanced after 1 trials
   
     3:19:00: Balanced after 1 trials
   
     3:20:00: Balanced after 1 trials
   
     3:21:00: Balanced after 1 trials
   
     3:22:00: Balanced after 1 trials
   
     3:23:00: Balanced after 1 trials
   
     3:24:00: Balanced after 1 trials
   
     3:25:00: Balanced after 1 trials
   
     3:26:00: Balanced after 1 trials
   
     3:27:00: Balanced after 1 trials
   
     3:28:00: Balanced after 1 trials
   
     3:29:00: Balanced after 1 trials
   
     3:30:00: Balanced after 1 trials
   
     3:31:00: Balanced after 1 trials
   
     3:32:00: Balanced after 1 trials
   
     3:33:00: Balanced after 1 trials
   
     3:34:00: Balanced after 1 trials
   
     3:35:00: Balanced after 1 trials
   
     3:36:00: Balanced after 1 trials
   
     3:37:00: Balanced after 1 trials
   
     3:38:00: Balanced after 1 trials
   
     3:39:00: Balanced after 1 trials
   
     3:40:00: Balanced after 1 trials
   
     3:41:00: Balanced after 1 trials
   
     3:42:00: Balanced after 1 trials
   
     3:43:00: Balanced after 1 trials
   
     3:44:00: Balanced after 1 trials
   
     3:45:00: Balanced after 1 trials
   
     3:46:00: Balanced after 1 trials
   
     3:47:00: Balanced after 1 trials
   
     3:48:00: Balanced after 1 trials
   
     3:49:00: Balanced after 1 trials
   
     3:50:00: Balanced after 1 trials
   
     3:51:00: Balanced after 1 trials
   
     3:52:00: Balanced after 1 trials
   
     3:53:00: Balanced after 1 trials
   
     3:54:00: Balanced after 1 trials
   
     3:55:00: Balanced after 1 trials
   
     3:56:00: Balanced after 1 trials
   
     3:57:00: Balanced after 1 trials
   
     3:58:00: Balanced after 1 trials
   
     3:59:00: Balanced after 1 trials
   
     4:00:00: Balanced after 3 trials
   
     4:01:00: Balanced after 1 trials
   
     4:02:00: Balanced after 1 trials
   
     4:03:00: Balanced after 1 trials
   
     4:04:00: Balanced after 1 trials
   
     4:05:00: Balanced after 1 trials
   
     4:06:00: Balanced after 1 trials
   
     4:07:00: Balanced after 1 trials
   
     4:08:00: Balanced after 1 trials
   
     4:09:00: Balanced after 1 trials
   
     4:10:00: Balanced after 1 trials
   
     4:11:00: Balanced after 1 trials
   
     4:12:00: Balanced after 1 trials
   
     4:13:00: Balanced after 1 trials
   
     4:14:00: Balanced after 1 trials
   
     4:15:00: Balanced after 1 trials
   
     4:16:00: Balanced after 1 trials
   
     4:17:00: Balanced after 4 trials
     4:17:00: Pipe 330 changed from closed to open
     4:17:00: Pump 335 changed from open to closed
   
     4:18:00: Balanced after 1 trials
   
     4:19:00: Balanced after 1 trials
   
     4:20:00: Balanced after 1 trials
   
     4:21:00: Balanced after 1 trials
   
     4:22:00: Balanced after 1 trials
   
     4:23:00: Balanced after 1 trials
   
     4:24:00: Balanced after 1 trials
   
     4:25:00: Balanced after 1 trials
   
     4:26:00: Balanced after 1 trials
   
     4:27:00: Balanced after 1 trials
   
     4:28:00: Balanced after 1 trials
   
     4:29:00: Balanced after 1 trials
   
     4:30:00: Balanced after 1 trials
   
     4:31:00: Balanced after 1 trials
   
     4:32:00: Balanced after 1 trials
   
     4:33:00: Balanced after 1 trials
   
     4:34:00: Balanced after 1 trials
   
     4:35:00: Balanced after 1 trials
   
     4:36:00: Balanced after 1 trials
   
     4:37:00: Balanced after 1 trials
   
     4:38:00: Balanced after 1 trials
   
     4:39:00: Balanced after 1 trials
   
     4:40:00: Balanced after 1 trials
   
     4:41:00: Balanced after 1 trials
   
     4:42:00: Balanced after 1 trials
   
     4:43:00: Balanced after 1 trials
   
     4:44:00: Balanced after 1 trials
   
     4:45:00: Balanced after 1 trials
   
     4:46:00: Balanced after 1 trials
   
     4:47:00: Balanced after 1 trials
   
     4:48:00: Balanced after 1 trials
   
     4:49:00: Balanced after 1 trials
   
     4:50:00: Balanced after 1 trials
   
     4:51:00: Balanced after 1 trials
   
     4:52:00: Balanced after 1 trials
   
     4:53:00: Balanced after 1 trials
   
     4:54:00: Balanced after 1 trials
   
     4:55:00: Balanced after 1 trials
   
     4:56:00: Balanced after 1 trials
   
     4:57:00: Balanced after 1 trials
   
     4:58:00: Balanced after 1 trials
   
     4:59:00: Balanced after 1 trials
   
     5:00:00: Balanced after 3 trials
     5:00:00: Tank 3 is emptying at 34.36 ft
   
     5:01:00: Balanced after 1 trials
   
     5:02:00: Balanced after 1 trials
   
     5:03:00: Balanced after 1 trials
   
     5:04:00: Balanced after 1 trials
   
     5:05:00: Balanced after 1 trials
   
     5:06:00: Balanced after 1 trials
   
     5:07:00: Balanced after 1 trials
   
     5:08:00: Balanced after 1 trials
   
     5:09:00: Balanced after 1 trials
   
     5:10:00: Balanced after 1 trials
   
     5:11:00: Balanced after 1 trials
   
     5:12:00: Balanced after 1 trials
   
     5:13:00: Balanced after 1 trials
   
     5:14:00: Balanced after 1 trials
   
     5:15:00: Balanced after 1 trials
   
     5:16:00: Balanced after 1 trials
   
     5:17:00: Balanced after 1 trials
   
     5:18:00: Balanced after 1 trials
   
     5:19:00: Balanced after 1 trials
   
     5:20:00: Balanced after 1 trials
   
     5:21:00: Balanced after 1 trials
   
     5:22:00: Balanced after 1 trials
   
     5:23:00: Balanced after 1 trials
   
     5:24:00: Balanced after 1 trials
   
     5:25:00: Balanced after 1 trials
   
     5:26:00: Balanced after 1 trials
   
     5:27:00: Balanced after 1 trials
   
     5:28:00: Balanced after 1 trials
   
     5:29:00: Balanced after 1 trials
   
     5:30:00: Balanced after 1 trials
   
     5:31:00: Balanced after 1 trials
   
     5:32:00: Balanced after 1 trials
   
     5:33:00: Balanced after 1 trials
   
     5:34:00: Balanced after 1 trials
   
     5:35:00: Balanced after 1 trials
   
     5:36:00: Balanced after 1 trials
   
     5:37:00: Balanced after 1 trials
   
     5:38:00: Balanced after 1 trials
   
     5:39:00: Balanced after 1 trials
   
     5:40:00: Balanced after 1 trials
   
     5:41:00: Balanced after 1 trials
   
     5:42:00: Balanced after 1 trials
   
     5:43:00: Balanced after 1 trials
   
     5:44:00: Balanced after 1 trials
   
     5:45:00: Balanced after 1 trials
   
     5:46:00: Balanced after 1 trials
   
     5:47:00: Balanced after 1 trials
   
     5:48:00: Balanced after 1 trials
   
     5:49:00: Balanced after 1 trials
   
     5:50:00: Balanced after 1 trials
   
     5:51:00: Balanced after 1 trials
   
     5:52:00: Balanced after 1 trials
   
     5:53:00: Balanced after 1 trials
   
     5:54:00: Balanced after 1 trials
   
     5:55:00: Balanced after 1 trials
   
     5:56:00: Balanced after 1 trials
   
     5:57:00: Balanced after 1 trials
   
     5:58:00: Balanced after 1 trials
   
     5:59:00: Balanced after 1 trials
   
     6:00:00: Balanced after 3 trials
     6:00:00: Tank 3 is filling at 34.20 ft
   
     6:01:00: Balanced after 1 trials
   
     6:02:00: Balanced after 1 trials
   
     6:03:00: Balanced after 1 trials
   
     6:04:00: Balanced after 1 trials
   
     6:05:00: Balanced after 1 trials
   
     6:06:00: Balanced after 1 trials
   
     6:07:00: Balanced after 1 trials
   
     6:08:00: Balanced after 1 trials
   
     6:09:00: Balanced after 1 trials
   
     6:10:00: Balanced after 1 trials
   
     6:11:00: Balanced after 1 trials
   
     6:12:00: Balanced after 1 trials
   
     6:13:00: Balanced after 1 trials
   
     6:14:00: Balanced after 1 trials
   
     6:15:00: Balanced after 1 trials
   
     6:16:00: Balanced after 1 trials
   
     6:17:00: Balanced after 1 trials
   
     6:18:00: Balanced after 1 trials
   
     6:19:00: Balanced after 1 trials
   
     6:20:00: Balanced after 1 trials
   
     6:21:00: Balanced after 1 trials
   
     6:22:00: Balanced after 1 trials
   
     6:23:00: Balanced after 1 trials
   
     6:24:00: Balanced after 1 trials
   
     6:25:00: Balanced after 1 trials
   
     6:26:00: Balanced after 1 trials
   
     6:27:00: Balanced after 1 trials
   
     6:28:00: Balanced after 1 trials
   
     6:29:00: Balanced after 1 trials
   
     6:30:00: Balanced after 1 trials
   
     6:31:00: Balanced after 1 trials
   
     6:32:00: Balanced after 1 trials
   
     6:33:00: Balanced after 1 trials
   
     6:34:00: Balanced after 1 trials
   
     6:35:00: Balanced after 1 trials
   
     6:36:00: Balanced after 1 trials
   
     6:37:00: Balanced after 1 trials
   
     6:38:00: Balanced after 1 trials
   
     6:39:00: Balanced after 1 trials
   
     6:40:00: Balanced after 1 trials
   
     6:41:00: Balanced after 1 trials
   
     6:42:00: Balanced after 1 trials
   
     6:43:00: Balanced after 1 trials
   
     6:44:00: Balanced after 1 trials
   
     6:45:00: Balanced after 1 trials
   
     6:46:00: Balanced after 1 trials
   
     6:47:00: Balanced after 1 trials
   
     6:48:00: Balanced after 1 trials
   
     6:49:00: Balanced after 1 trials
   
     6:50:00: Balanced after 1 trials
   
     6:51:00: Balanced after 1 trials
   
     6:52:00: Balanced after 1 trials
   
     6:53:00: Balanced after 1 trials
   
     6:54:00: Balanced after 1 trials
   
     6:55:00: Balanced after 1 trials
   
     6:56:00: Balanced after 1 trials
   
     6:57:00: Balanced after 1 trials
   
     6:58:00: Balanced after 1 trials
   
     6:59:00: Balanced after 1 trials
   
     7:00:00: Balanced after 3 trials
   
     7:01:00: Balanced after 1 trials
   
     7:02:00: Balanced after 1 trials
   
     7:03:00: Balanced after 1 trials
   
     7:04:00: Balanced after 1 trials
   
     7:05:00: Balanced after 1 trials
   
     7:06:00: Balanced after 1 trials
   
     7:07:00: Balanced after 1 trials
   
     7:08:00: Balanced after 1 trials
   
     7:09:00: Balanced after 1 trials
   
     7:10:00: Balanced after 1 trials
   
     7:11:00: Balanced after 1 trials
   
     7:12:00: Balanced after 1 trials
   
     7:13:00: Balanced after 1 trials
   
     7:14:00: Balanced after 1 trials
   
     7:15:00: Balanced after 1 trials
   
     7:16:00: Balanced after 1 trials
   
     7:17:00: Balanced after 1 trials
   
     7:18:00: Balanced after 1 trials
   
     7:19:00: Balanced after 1 trials
   
     7:20:00: Balanced after 1 trials
   
     7:21:00: Balanced after 1 trials
   
     7:22:00: Balanced after 1 trials
   
     7:23:00: Balanced after 1 trials
   
     7:24:00: Balanced after 1 trials
   
     7:25:00: Balanced after 1 trials
   
     7:26:00: Balanced after 1 trials
   
     7:27:00: Balanced after 1 trials
   
     7:28:00: Balanced after 1 trials
   
     7:29:00: Balanced after 1 trials
   
     7:30:00: Balanced after 1 trials
   
     7:31:00: Balanced after 1 trials
   
     7:32:00: Balanced after 1 trials
   
     7:33:00: Balanced after 1 trials
   
     7:34:00: Balanced after 1 trials
   
     7:35:00: Balanced after 1 trials
   
     7:36:00: Balanced after 1 trials
   
     7:37:00: Balanced after 1 trials
   
     7:38:00: Balanced after 1 trials
   
     7:39:00: Balanced after 1 trials
   
     7:40:00: Balanced after 1 trials
   
     7:41:00: Balanced after 1 trials
   
     7:42:00: Balanced after 1 trials
   
     7:43:00: Balanced after 1 trials
   
     7:44:00: Balanced after 1 trials
   
     7:45:00: Balanced after 1 trials
   
     7:46:00: Balanced after 1 trials
   
     7:47:00: Balanced after 1 trials
   
     7:48:00: Balanced after 1 trials
   
     7:49:00: Balanced after 1 trials
   
     7:50:00: Balanced after 1 trials
   
     7:51:00: Balanced after 1 trials
   
     7:52:00: Balanced after 1 trials
   
     7:53:00: Balanced after 1 trials
   
     7:54:00: Balanced after 1 trials
   
     7:55:00: Balanced after 1 trials
   
     7:56:00: Balanced after 1 trials
   
     7:57:00: Balanced after 1 trials
   
     7:58:00: Balanced after 1 trials
   
     7:59:00: Balanced after 1 trials
   
     8:00:00: Balanced after 2 trials
   
     8:01:00: Balanced after 1 trials
   
     8:02:00: Balanced after 1 trials
   
     8:03:00: Balanced after 1 trials
   
     8:04:00: Balanced after 1 trials
   
     8:05:00: Balanced after 1 trials
   
     8:06:00: Balanced after 1 trials
   
     8:07:00: Balanced after 1 trials
   
     8:08:00: Balanced after 1 trials
   
     8:09:00: Balanced after 1 trials
   
     8:10:00: Balanced after 1 trials
   
     8:11:00: Balanced after 1 trials
   
     8:12:00: Balanced after 1 trials
   
     8:13:00: Balanced after 1 trials
   
     8:14:00: Balanced after 1 trials
   
     8:15:00: Balanced after 1 trials
   
     8:16:00: Balanced after 1 trials
   
     8:17:00: Balanced after 1 trials
   
     8:18:00: Balanced after 1 trials
   
     8:19:00: Balanced after 1 trials
   
     8:20:00: Balanced after 1 trials
   
     8:21:00: Balanced after 1 trials
   
     8:22:00: Balanced after 1 trials
   
     8:23:00: Balanced after 1 trials
   
     8:24:00: Balanced after 1 trials
   
     8:25:00: Balanced after 1 trials
   
     8:26:00: Balanced after 1 trials
   
     8:27:00: Balanced after 1 trials
   
     8:28:00: Balanced after 1 trials
   
     8:29:00: Balanced after 1 trials
   
     8:30:00: Balanced after 1 trials
   
     8:31:00: Balanced after 1 trials
   
     8:32:00: Balanced after 1 trials
   
     8:33:00: Balanced after 1 trials
   
     8:34:00: Balanced after 1 trials
   
     8:35:00: Balanced after 1 trials
   
     8:36:00: Balanced after 1 trials
   
     8:37:00: Balanced after 1 trials
   
     8:38:00: Balanced after 1 trials
   
     8:39:00: Balanced after 1 trials
   
     8:40:00: Balanced after 1 trials
   
     8:41:00: Balanced after 1 trials
   
     8:42:00: Balanced after 1 trials
   
     8:43:00: Balanced after 1 trials
   
     8:44:00: Balanced after 1 trials
   
     8:45:00: Balanced after 1 trials
   
     8:46:00: Balanced after 1 trials
   
     8:47:00: Balanced after 1 trials
   
     8:48:00: Balanced after 1 trials
   
     8:49:00: Balanced after 1 trials
   
     8:50:00: Balanced after 1 trials
   
     8:51:00: Balanced after 1 trials
   
     8:52:00: Balanced after 1 trials
   
     8:53:00: Balanced after 1 trials
   
     8:54:00: Balanced after 1 trials
   
     8:55:00: Balanced after 1 trials
   
     8:56:00: Balanced after 1 trials
   
     8:57:00: Balanced after 1 trials
   
     8:58:00: Balanced after 1 trials
   
     8:59:00: Balanced after 1 trials
   
     9:00:00: Balanced after 3 trials
     9:00:00: Tank 3 is emptying at 35.20 ft
   
     9:01:00: Balanced after 1 trials
   
     9:02:00: Balanced after 1 trials
   
     9:03:00: Balanced after 1 trials
   
     9:04:00: Balanced after 1 trials
   
     9:05:00: Balanced after 1 trials
   
     9:06:00: Balanced after 1 trials
   
     9:07:00: Balanced after 1 trials
   
     9:08:00: Balanced after 1 trials
   
     9:09:00: Balanced after 1 trials
   
     9:10:00: Balanced after 1 trials
   
     9:11:00: Balanced after 1 trials
   
     9:12:00: Balanced after 1 trials
   
     9:13:00: Balanced after 1 trials
   
     9:14:00: Balanced after 1 trials
   
     9:15:00: Balanced after 1 trials
   
     9:16:00: Balanced after 1 trials
   
     9:17:00: Balanced after 1 trials
   
     9:18:00: Balanced after 1 trials
   
     9:19:00: Balanced after 1 trials
   
     9:20:00: Balanced after 1 trials
   
     9:21:00: Balanced after 1 trials
   
     9:22:00: Balanced after 1 trials
   
     9:23:00: Balanced after 1 trials
   
     9:24:00: Balanced after 1 trials
   
     9:25:00: Balanced after 1 trials
   
     9:26:00: Balanced after 1 trials
   
     9:27:00: Balanced after 1 trials
   
     9:28:00: Balanced after 1 trials
   
     9:29:00: Balanced after 1 trials
   
     9:30:00: Balanced after 1 trials
   
     9:31:00: Balanced after 1 trials
   
     9:32:00: Balanced after 1 trials
   
     9:33:00: Balanced after 1 trials
   
     9:34:00: Balanced after 1 trials
   
     9:35:00: Balanced after 1 trials
   
     9:36:00: Balanced after 1 trials
   
     9:37:00: Balanced after 1 trials
   
     9:38:00: Balanced after 1 trials
   
     9:39:00: Balanced after 1 trials
   
     9:40:00: Balanced after 1 trials
   
     9:41:00: Balanced after 1 trials
   
     9:42:00: Balanced after 1 trials
   
     9:43:00: Balanced after 1 trials
   
     9:44:00: Balanced after 1 trials
   
     9:45:00: Balanced after 1 trials
     9:45:00: Tank 1 is closed at 22.14 ft
   
     9:46:00: Balanced after 1 trials
     9:46:00: Tank 1 is emptying at 22.14 ft
   
     9:47:00: Balanced after 1 trials
   
     9:48:00: Balanced after 1 trials
   
     9:49:00: Balanced after 1 trials
   
     9:50:00: Balanced after 1 trials
   
     9:51:00: Balanced after 1 trials
   
     9:52:00: Balanced after 1 trials
   
     9:53:00: Balanced after 1 trials
   
     9:54:00: Balanced after 1 trials
   
     9:55:00: Balanced after 1 trials
   
     9:56:00: Balanced after 1 trials
   
     9:57:00: Balanced after 1 trials
   
     9:58:00: Balanced after 1 trials
   
     9:59:00: Balanced after 1 trials
   
    10:00:00: Balanced after 2 trials
    10:00:00: Tank 1 is filling at 22.14 ft
   
    10:01:00: Balanced after 1 trials
   
    10:02:00: Balanced after 1 trials
   
    10:03:00: Balanced after 1 trials
   
    10:04:00: Balanced after 1 trials
   
    10:05:00: Balanced after 1 trials
   
    10:06:00: Balanced after 1 trials
   
    10:07:00: Balanced after 1 trials
   
    10:08:00: Balanced after 1 trials
   
    10:09:00: Balanced after 1 trials
   
    10:10:00: Balanced after 1 trials
   
    10:11:00: Balanced after 1 trials
   
    10:12:00: Balanced after 1 trials
   
    10:13:00: Balanced after 1 trials
   
    10:14:00: Balanced after 1 trials
   
    10:15:00: Balanced after 1 trials
   
    10:16:00: Balanced after 1 trials
   
    10:17:00: Balanced after 1 trials
   
    10:18:00: Balanced after 1 trials
   
    10:19:00: Balanced after 1 trials
   
    10:20:00: Balanced after 1 trials
   
    10:21:00: Balanced after 1 trials
   
    10:22:00: Balanced after 1 trials
   
    10:23:00: Balanced after 1 trials
   
    10:24:00: Balanced after 1 trials
   
    10:25:00: Balanced after 1 trials
   
    10:26:00: Balanced after 1 trials
    10:26:00: Tank 1 is closed at 22.15 ft
   
    10:27:00: Balanced after 1 trials
    10:27:00: Tank 1 is emptying at 22.15 ft
   
    10:28:00: Balanced after 1 trials
   
    10:29:00: Balanced after 1 trials
   
    10:30:00: Balanced after 1 trials
   
    10:31:00: Balanced after 1 trials
   
    10:32:00: Balanced after 1 trials
   
    10:33:00: Balanced after 1 trials
   
    10:34:00: Balanced after 1 trials
   
    10:35:00: Balanced after 1 trials
   
    10:36:00: Balanced after 1 trials
   
    10:37:00: Balanced after 1 trials
   
    10:38:00: Balanced after 1 trials
   
    10:39:00: Balanced after 1 trials
   
    10:40:00: Balanced after 1 trials
   
    10:41:00: Balanced after 1 trials
   
    10:42:00: Balanced after 1 trials
   
    10:43:00: Balanced after 1 trials
   
    10:44:00: Balanced after 1 trials
   
    10:45:00: Balanced after 1 trials
   
    10:46:00: Balanced after 1 trials
   
    10:47:00: Balanced after 1 trials
   
    10:48:00: Balanced after 1 trials
   
    10:49:00: Balanced after 1 trials
   
    10:50:00: Balanced after 1 trials
   
    10:51:00: Balanced after 1 trials
   
    10:52:00: Balanced after 1 trials
   
    10:53:00: Balanced after 1 trials
   
    10:54:00: Balanced after 1 trials
   
    10:55:00: Balanced after 1 trials
   
    10:56:00: Balanced after 1 trials
   
    10:57:00: Balanced after 1 trials
   
    10:58:00: Balanced after 1 trials
   
    10:59:00: Balanced after 1 trials
   
    11:00:00: Balanced after 3 trials
    11:00:00: Tank 2 is emptying at 27.65 ft
   
    11:01:00: Balanced after 1 trials
   
    11:02:00: Balanced after 1 trials
   
    11:03:00: Balanced after 1 trials
   
    11:04:00: Balanced after 1 trials
   
    11:05:00: Balanced after 1 trials
   
    11:06:00: Balanced after 1 trials
   
    11:07:00: Balanced after 1 trials
   
    11:08:00: Balanced after 1 trials
   
    11:09:00: Balanced after 1 trials
   
    11:10:00: Balanced after 1 trials
   
    11:11:00: Balanced after 1 trials
   
    11:12:00: Balanced after 1 trials
   
    11:13:00: Balanced after 1 trials
   
    11:14:00: Balanced after 1 trials
   
    11:15:00: Balanced after 1 trials
   
    11:16:00: Balanced after 1 trials
   
    11:17:00: Balanced after 1 trials
   
    11:18:00: Balanced after 1 trials
   
    11:19:00: Balanced after 1 trials
   
    11:20:00: Balanced after 1 trials
   
    11:21:00: Balanced after 1 trials
   
    11:22:00: Balanced after 1 trials
   
    11:23:00: Balanced after 1 trials
   
    11:24:00: Balanced after 1 trials
   
    11:25:00: Balanced after 1 trials
   
    11:26:00: Balanced after 1 trials
   
    11:27:00: Balanced after 1 trials
   
    11:28:00: Balanced after 1 trials
   
    11:29:00: Balanced after 1 trials
   
    11:30:00: Balanced after 1 trials
   
    11:31:00: Balanced after 1 trials
   
    11:32:00: Balanced after 1 trials
   
    11:33:00: Balanced after 1 trials
   
    11:34:00: Balanced after 1 trials
   
    11:35:00: Balanced after 1 trials
   
    11:36:00: Balanced after 1 trials
   
    11:37:00: Balanced after 1 trials
   
    11:38:00: Balanced after 1 trials
   
    11:39:00: Balanced after 1 trials
   
    11:40:00: Balanced after 1 trials
   
    11:41:00: Balanced after 1 trials
   
    11:42:00: Balanced after 1 trials
   
    11:43:00: Balanced after 1 trials
   
    11:44:00: Balanced after 1 trials
   
    11:45:00: Balanced after 1 trials
   
    11:46:00: Balanced after 1 trials
   
    11:47:00: Balanced after 1 trials
   
    11:48:00: Balanced after 1 trials
   
    11:49:00: Balanced after 1 trials
   
    11:50:00: Balanced after 1 trials
   
    11:51:00: Balanced after 1 trials
   
    11:52:00: Balanced after 1 trials
   
    11:53:00: Balanced after 1 trials
   
    11:54:00: Balanced after 1 trials
   
    11:55:00: Balanced after 1 trials
   
    11:56:00: Balanced after 1 trials
   
    11:57:00: Balanced after 1 trials
   
    11:58:00: Balanced after 1 trials
   
    11:59:00: Balanced after 1 trials
   
    12:00:00: Balanced after 2 trials
    12:00:00: Tank 2 is filling at 27.57 ft
   
    12:01:00: Balanced after 1 trials
   
    12:02:00: Balanced after 1 trials
   
    12:03:00: Balanced after 1 trials
   
    12:04:00: Balanced after 1 trials
   
    12:05:00: Balanced after 1 trials
   
    12:06:00: Balanced after 1 trials
   
    12:07:00: Balanced after 1 trials
   
    12:08:00: Balanced after 1 trials
   
    12:09:00: Balanced after 1 trials
   
    12:10:00: Balanced after 1 trials
   
    12:11:00: Balanced after 1 trials
   
    12:12:00: Balanced after 1 trials
   
    12:13:00: Balanced after 1 trials
   
    12:14:00: Balanced after 1 trials
   
    12:15:00: Balanced after 1 trials
   
    12:16:00: Balanced after 1 trials
   
    12:17:00: Balanced after 1 trials
   
    12:18:00: Balanced after 1 trials
   
    12:19:00: Balanced after 1 trials
   
    12:20:00: Balanced after 1 trials
   
    12:21:00: Balanced after 1 trials
   
    12:22:00: Balanced after 1 trials
   
    12:23:00: Balanced after 1 trials
   
    12:24:00: Balanced after 1 trials
   
    12:25:00: Balanced after 1 trials
   
    12:26:00: Balanced after 1 trials
   
    12:27:00: Balanced after 1 trials
   
    12:28:00: Balanced after 1 trials
   
    12:29:00: Balanced after 1 trials
   
    12:30:00: Balanced after 1 trials
    12:30:00: Tank 2 is closed at 27.58 ft
   
    12:31:00: Balanced after 1 trials
   
    12:32:00: Balanced after 1 trials
   
    12:33:00: Balanced after 1 trials
   
    12:34:00: Balanced after 1 trials
    12:34:00: Tank 2 is emptying at 27.58 ft
   
    12:35:00: Balanced after 1 trials
   
    12:36:00: Balanced after 1 trials
   
    12:37:00: Balanced after 1 trials
   
    12:38:00: Balanced after 1 trials
   
    12:39:00: Balanced after 1 trials
   
    12:40:00: Balanced after 1 trials
   
    12:41:00: Balanced after 1 trials
   
    12:42:00: Balanced after 1 trials
   
    12:43:00: Balanced after 1 trials
   
    12:44:00: Balanced after 1 trials
   
    12:45:00: Balanced after 1 trials
   
    12:46:00: Balanced after 1 trials
   
    12:47:00: Balanced after 1 trials
   
    12:48:00: Balanced after 1 trials
   
    12:49:00: Balanced after 1 trials
   
    12:50:00: Balanced after 1 trials
   
    12:51:00: Balanced after 1 trials
   
    12:52:00: Balanced after 1 trials
   
    12:53:00: Balanced after 1 trials
   
    12:54:00: Balanced after 1 trials
   
    12:55:00: Balanced after 1 trials
   
    12:56:00: Balanced after 1 trials
   
    12:57:00: Balanced after 1 trials
   
    12:58:00: Balanced after 1 trials
   
    12:59:00: Balanced after 1 trials
   
    13:00:00: Balanced after 3 trials
    13:00:00: Tank 1 is filling at 21.71 ft
    13:00:00: Tank 2 is filling at 27.58 ft
   
    13:01:00: Balanced after 1 trials
   
    13:02:00: Balanced after 1 trials
   
    13:03:00: Balanced after 1 trials
   
    13:04:00: Balanced after 1 trials
   
    13:05:00: Balanced after 1 trials
   
    13:06:00: Balanced after 1 trials
   
    13:07:00: Balanced after 1 trials
   
    13:08:00: Balanced after 1 trials
   
    13:09:00: Balanced after 1 trials
   
    13:10:00: Balanced after 1 trials
   
    13:11:00: Balanced after 1 trials
   
    13:12:00: Balanced after 1 trials
   
    13:13:00: Balanced after 1 trials
   
    13:14:00: Balanced after 1 trials
   
    13:15:00: Balanced after 1 trials
   
    13:16:00: Balanced after 1 trials
   
    13:17:00: Balanced after 1 trials
   
    13:18:00: Balanced after 1 trials
   
    13:19:00: Balanced after 1 trials
   
    13:20:00: Balanced after 1 trials
   
    13:21:00: Balanced after 1 trials
   
    13:22:00: Balanced after 1 trials
   
    13:23:00: Balanced after 1 trials
   
    13:24:00: Balanced after 1 trials
   
    13:25:00: Balanced after 1 trials
    13:25:00: Tank 1 is closed at 21.72 ft
   
    13:26:00: Balanced after 1 trials
    13:26:00: Tank 1 is emptying at 21.72 ft
   
    13:27:00: Balanced after 1 trials
   
    13:28:00: Balanced after 1 trials
   
    13:29:00: Balanced after 1 trials
   
    13:30:00: Balanced after 1 trials
   
    13:31:00: Balanced after 1 trials
   
    13:32:00: Balanced after 1 trials
   
    13:33:00: Balanced after 1 trials
   
    13:34:00: Balanced after 1 trials
   
    13:35:00: Balanced after 1 trials
   
    13:36:00: Balanced after 1 trials
   
    13:37:00: Balanced after 1 trials
   
    13:38:00: Balanced after 1 trials
   
    13:39:00: Balanced after 1 trials
   
    13:40:00: Balanced after 1 trials
   
    13:41:00: Balanced after 1 trials
   
    13:42:00: Balanced after 1 trials
   
    13:43:00: Balanced after 1 trials
   
    13:44:00: Balanced after 1 trials
   
    13:45:00: Balanced after 1 trials
   
    13:46:00: Balanced after 1 trials
   
    13:47:00: Balanced after 1 trials
   
    13:48:00: Balanced after 1 trials
   
    13:49:00: Balanced after 1 trials
   
    13:50:00: Balanced after 1 trials
   
    13:51:00: Balanced after 1 trials
   
    13:52:00: Balanced after 1 trials
   
    13:53:00: Balanced after 1 trials
   
    13:54:00: Balanced after 1 trials
   
    13:55:00: Balanced after 1 trials
   
    13:56:00: Balanced after 1 trials
   
    13:57:00: Balanced after 1 trials
   
    13:58:00: Balanced after 1 trials
   
    13:59:00: Balanced after 1 trials
   
    14:00:00: Balanced after 3 trials
    14:00:00: Tank 1 is filling at 21.71 ft
   
    14:01:00: Balanced after 1 trials
   
    14:02:00: Balanced after 1 trials
   
    14:03:00: Balanced after 1 trials
   
    14:04:00: Balanced after 1 trials
   
    14:05:00: Balanced after 1 trials
   
    14:06:00: Balanced after 1 trials
   
    14:07:00: Balanced after 1 trials
   
    14:08:00: Balanced after 1 trials
   
    14:09:00: Balanced after 1 trials
   
    14:10:00: Balanced after 1 trials
   
    14:11:00: Balanced after 1 trials
   
    14:12:00: Balanced after 1 trials
   
    14:13:00: Balanced after 1 trials
   
    14:14:00: Balanced after 1 trials
   
    14:15:00: Balanced after 1 trials
   
    14:16:00: Balanced after 1 trials
   
    14:17:00: Balanced after 1 trials
   
    14:18:00: Balanced after 1 trials
   
    14:19:00: Balanced after 1 trials
   
    14:20:00: Balanced after 1 trials
   
    14:21:00: Balanced after 1 trials
   
    14:22:00: Balanced after 1 trials
   
    14:23:00: Balanced after 1 trials
   
    14:24:00: Balanced after 1 trials
   
    14:25:00: Balanced after 1 trials
   
    14:26:00: Balanced after 1 trials
   
    14:27:00: Balanced after 1 trials
   
    14:28:00: Balanced after 1 trials
   
    14:29:00: Balanced after 1 trials
   
    14:30:00: Balanced after 1 trials
   
    14:31:00: Balanced after 1 trials
   
    14:32:00: Balanced after 1 trials
   
    14:33:00: Balanced after 1 trials
   
    14:34:00: Balanced after 1 trials
   
    14:35:00: Balanced after 1 trials
   
    14:36:00: Balanced after 1 trials
   
    14:37:00: Balanced after 1 trials
   
    14:38:00: Balanced after 1 trials
   
    14:39:00: Balanced after 1 trials
   
    14:40:00: Balanced after 1 trials
   
    14:41:00: Balanced after 1 trials
   
    14:42:00: Balanced after 1 trials
   
    14:43:00: Balanced after 1 trials
   
    14:44:00: Balanced after 1 trials
   
    14:45:00: Balanced after 1 trials
   
    14:46:00: Balanced after 1 trials
   
    14:47:00: Balanced after 1 trials
   
    14:48:00: Balanced after 1 trials
   
    14:49:00: Balanced after 1 trials
   
    14:50:00: Balanced after 1 trials
   
    14:51:00: Balanced after 1 trials
   
    14:52:00: Balanced after 1 trials
   
    14:53:00: Balanced after 1 trials
   
    14:54:00: Balanced after 1 trials
   
    14:55:00: Balanced after 1 trials
   
    14:56:00: Balanced after 1 trials
   
    14:57:00: Balanced after 1 trials
   
    14:58:00: Balanced after 1 trials
   
    14:59:00: Balanced after 1 trials
   
    15:00:00: Balanced after 5 trials
    15:00:00: Reservoir Lake is closed
    15:00:00: Tank 1 is emptying at 21.92 ft
    15:00:00: Tank 2 is emptying at 28.11 ft
    15:00:00: Pump 10 changed from open to closed
   
    15:01:00: Balanced after 1 trials
   
    15:02:00: Balanced after 1 trials
   
    15:03:00: Balanced after 1 trials
   
    15:04:00: Balanced after 1 trials
   
    15:05:00: Balanced after 1 trials
   
    15:06:00: Balanced after 1 trials
   
    15:07:00: Balanced after 1 trials
   
    15:08:00: Balanced after 1 trials
   
    15:09:00: Balanced after 1 trials
   
    15:10:00: Balanced after 1 trials
   
    15:11:00: Balanced after 1 trials
   
    15:12:00: Balanced after 1 trials
   
    15:13:00: Balanced after 1 trials
   
    15:14:00: Balanced after 1 trials
   
    15:15:00: Balanced after 1 trials
   
    15:16:00: Balanced after 1 trials
   
    15:17:00: Balanced after 1 trials
   
    15:18:00: Balanced after 1 trials
   
    15:19:00: Balanced after 1 trials
   
    15:20:00: Balanced after 1 trials
   
    15:21:00: Balanced after 1 trials
   
    15:22:00: Balanced after 1 trials
   
    15:23:00: Balanced after 1 trials
   
    15:24:00: Balanced after 1 trials
   
    15:25:00: Balanced after 1 trials
   
    15:26:00: Balanced after 1 trials
   
    15:27:00: Balanced after 1 trials
   
    15:28:00: Balanced after 1 trials
   
    15:29:00: Balanced after 1 trials
   
    15:30:00: Balanced after 1 trials
   
    15:31:00: Balanced after 1 trials
   
    15:32:00: Balanced after 1 trials
   
    15:33:00: Balanced after 1 trials
   
    15:34:00: Balanced after 1 trials
   
    15:35:00: Balanced after 1 trials
   
    15:36:00: Balanced after 1 trials
   
    15:37:00: Balanced after 1 trials
   
    15:38:00: Balanced after 1 trials
   
    15:39:00: Balanced after 1 trials
   
    15:40:00: Balanced after 1 trials
   
    15:41:00: Balanced after 1 trials
   
    15:42:00: Balanced after 1 trials
   
    15:43:00: Balanced after 1 trials
   
    15:44:00: Balanced after 1 trials
   
    15:45:00: Balanced after 1 trials
   
    15:46:00: Balanced after 1 trials
   
    15:47:00: Balanced after 1 trials
   
    15:48:00: Balanced after 1 trials
   
    15:49:00: Balanced after 1 trials
   
    15:50:00: Balanced after 1 trials
   
    15:51:00: Balanced after 1 trials
   
    15:52:00: Balanced after 1 trials
   
    15:53:00: Balanced after 1 trials
   
    15:54:00: Balanced after 1 trials
   
    15:55:00: Balanced after 1 trials
   
    15:56:00: Balanced after 1 trials
   
    15:57:00: Balanced after 1 trials
   
    15:58:00: Balanced after 1 trials
   
    15:59:00: Balanced after 1 trials
   
    16:00:00: Balanced after 3 trials
   
    16:01:00: Balanced after 1 trials
   
    16:02:00: Balanced after 1 trials
   
    16:03:00: Balanced after 1 trials
   
    16:04:00: Balanced after 1 trials
   
    16:05:00: Balanced after 1 trials
   
    16:06:00: Balanced after 1 trials
   
    16:07:00: Balanced after 1 trials
   
    16:08:00: Balanced after 1 trials
   
    16:09:00: Balanced after 1 trials
   
    16:10:00: Balanced after 1 trials
   
    16:11:00: Balanced after 1 trials
   
    16:12:00: Balanced after 1 trials
   
    16:13:00: Balanced after 1 trials
   
    16:14:00: Balanced after 1 trials
   
    16:15:00: Balanced after 1 trials
   
    16:16:00: Balanced after 1 trials
   
    16:17:00: Balanced after 1 trials
   
    16:18:00: Balanced after 1 trials
   
    16:19:00: Balanced after 1 trials
   
    16:20:00: Balanced after 1 trials
   
    16:21:00: Balanced after 1 trials
   
    16:22:00: Balanced after 1 trials
   
    16:23:00: Balanced after 1 trials
   
    16:24:00: Balanced after 1 trials
   
    16:25:00: Balanced after 1 trials
   
    16:26:00: Balanced after 1 trials
   
    16:27:00: Balanced after 1 trials
   
    16:28:00: Balanced after 1 trials
   
    16:29:00: Balanced after 1 trials
   
    16:30:00: Balanced after 1 trials
   
    16:31:00: Balanced after 1 trials
   
    16:32:00: Balanced after 1 trials
   
    16:33:00: Balanced after 1 trials
   
    16:34:00: Balanced after 1 trials
   
    16:35:00: Balanced after 1 trials
   
    16:36:00: Balanced after 1 trials
   
    16:37:00: Balanced after 1 trials
   
    16:38:00: Balanced after 1 trials
   
    16:39:00: Balanced after 1 trials
   
    16:40:00: Balanced after 1 trials
   
    16:41:00: Balanced after 1 trials
   
    16:42:00: Balanced after 1 trials
   
    16:43:00: Balanced after 1 trials
   
    16:44:00: Balanced after 1 trials
   
    16:45:00: Balanced after 1 trials
   
    16:46:00: Balanced after 1 trials
   
    16:47:00: Balanced after 1 trials
   
    16:48:00: Balanced after 1 trials
   
    16:49:00: Balanced after 1 trials
   
    16:50:00: Balanced after 1 trials
   
    16:51:00: Balanced after 1 trials
   
    16:52:00: Balanced after 1 trials
   
    16:53:00: Balanced after 1 trials
   
    16:54:00: Balanced after 1 trials
   
    16:55:00: Balanced after 1 trials
   
    16:56:00: Balanced after 1 trials
   
    16:57:00: Balanced after 1 trials
   
    16:58:00: Balanced after 1 trials
   
    16:59:00: Balanced after 1 trials
   
    17:00:00: Balanced after 2 trials
   
    17:01:00: Balanced after 1 trials
   
    17:02:00: Balanced after 1 trials
   
    17:03:00: Balanced after 1 trials
   
    17:04:00: Balanced after 1 trials
   
    17:05:00: Balanced after 1 trials
   
    17:06:00: Balanced after 1 trials
   
    17:07:00: Balanced after 1 trials
   
    17:08:00: Balanced after 1 trials
   
    17:09:00: Balanced after 1 trials
   
    17:10:00: Balanced after 1 trials
   
    17:11:00: Balanced after 1 trials
   
    17:12:00: Balanced after 1 trials
   
    17:13:00: Balanced after 1 trials
   
    17:14:00: Balanced after 1 trials
   
    17:15:00: Balanced after 1 trials
   
    17:16:00: Balanced after 1 trials
   
    17:17:00: Balanced after 1 trials
   
    17:18:00: Balanced after 1 trials
   
    17:19:00: Balanced after 1 trials
   
    17:20:00: Balanced after 1 trials
   
    17:21:00: Balanced after 1 trials
   
    17:22:00: Balanced after 1 trials
   
    17:23:00: Balanced after 1 trials
   
    17:24:00: Balanced after 1 trials
   
    17:25:00: Balanced after 1 trials
   
    17:26:00: Balanced after 1 trials
   
    17:27:00: Balanced after 1 trials
   
    17:28:00: Balanced after 1 trials
   
    17:29:00: Balanced after 1 trials
   
    17:30:00: Balanced after 1 trials
   
    17:31:00: Balanced after 1 trials
   
    17:32:00: Balanced after 1 trials
   
    17:33:00: Balanced after 1 trials
   
    17:34:00: Balanced after 1 trials
   
    17:35:00: Balanced after 1 trials
   
    17:36:00: Balanced after 1 trials
   
    17:37:00: Balanced after 1 trials
   
    17:38:00: Balanced after 1 trials
   
    17:39:00: Balanced after 1 trials
   
    17:40:00: Balanced after 1 trials
   
    17:41:00: Balanced after 1 trials
   
    17:42:00: Balanced after 1 trials
   
    17:43:00: Balanced after 1 trials
   
    17:44:00: Balanced after 1 trials
   
    17:45:00: Balanced after 1 trials
   
    17:46:00: Balanced after 1 trials
   
    17:47:00: Balanced after 1 trials
   
    17:48:00: Balanced after 1 trials
   
    17:49:00: Balanced after 1 trials
   
    17:50:00: Balanced after 1 trials
   
    17:51:00: Balanced after 1 trials
   
    17:52:00: Balanced after 1 trials
   
    17:53:00: Balanced after 1 trials
   
    17:54:00: Balanced after 1 trials
   
    17:55:00: Balanced after 1 trials
   
    17:56:00: Balanced after 1 trials
   
    17:57:00: Balanced after 1 trials
   
    17:58:00: Balanced after 1 trials
   
    17:59:00: Balanced after 1 trials
   
    18:00:00: Balanced after 2 trials
    18:00:00: Tank 2 is filling at 27.55 ft
   
    18:01:00: Balanced after 1 trials
   
    18:02:00: Balanced after 1 trials
   
    18:03:00: Balanced after 1 trials
   
    18:04:00: Balanced after 1 trials
   
    18:05:00: Balanced after 1 trials
   
    18:06:00: Balanced after 1 trials
   
    18:07:00: Balanced after 1 trials
   
    18:08:00: Balanced after 1 trials
   
    18:09:00: Balanced after 1 trials
   
    18:10:00: Balanced after 1 trials
   
    18:11:00: Balanced after 1 trials
   
    18:12:00: Balanced after 1 trials
   
    18:13:00: Balanced after 1 trials
   
    18:14:00: Balanced after 1 trials
   
    18:15:00: Balanced after 1 trials
   
    18:16:00: Balanced after 1 trials
   
    18:17:00: Balanced after 1 trials
   
    18:18:00: Balanced after 1 trials
   
    18:19:00: Balanced after 1 trials
   
    18:20:00: Balanced after 1 trials
   
    18:21:00: Balanced after 1 trials
    18:21:00: Tank 2 is closed at 27.56 ft
   
    18:22:00: Balanced after 1 trials
    18:22:00: Tank 2 is emptying at 27.56 ft
   
    18:23:00: Balanced after 1 trials
   
    18:24:00: Balanced after 1 trials
   
    18:25:00: Balanced after 1 trials
   
    18:26:00: Balanced after 1 trials
   
    18:27:00: Balanced after 1 trials
   
    18:28:00: Balanced after 1 trials
   
    18:29:00: Balanced after 1 trials
   
    18:30:00: Balanced after 1 trials
   
    18:31:00: Balanced after 1 trials
   
    18:32:00: Balanced after 1 trials
   
    18:33:00: Balanced after 1 trials
   
    18:34:00: Balanced after 1 trials
   
    18:35:00: Balanced after 1 trials
   
    18:36:00: Balanced after 1 trials
   
    18:37:00: Balanced after 1 trials
   
    18:38:00: Balanced after 1 trials
   
    18:39:00: Balanced after 1 trials
   
    18:40:00: Balanced after 1 trials
   
    18:41:00: Balanced after 1 trials
   
    18:42:00: Balanced after 1 trials
   
    18:43:00: Balanced after 1 trials
   
    18:44:00: Balanced after 1 trials
   
    18:45:00: Balanced after 1 trials
   
    18:46:00: Balanced after 1 trials
   
    18:47:00: Balanced after 1 trials
   
    18:48:00: Balanced after 1 trials
   
    18:49:00: Balanced after 1 trials
   
    18:50:00: Balanced after 1 trials
   
    18:51:00: Balanced after 1 trials
   
    18:52:00: Balanced after 1 trials
   
    18:53:00: Balanced after 1 trials
   
    18:54:00: Balanced after 1 trials
   
    18:55:00: Balanced after 1 trials
   
    18:56:00: Balanced after 1 trials
   
    18:57:00: Balanced after 1 trials
   
    18:58:00: Balanced after 1 trials
   
    18:59:00: Balanced after 1 trials
   
    19:00:00: Balanced after 2 trials
   
    19:01:00: Balanced after 1 trials
   
    19:02:00: Balanced after 1 trials
   
    19:03:00: Balanced after 1 trials
   
    19:04:00: Balanced after 1 trials
   
    19:05:00: Balanced after 1 trials
   
    19:06:00: Balanced after 1 trials
   
    19:07:00: Balanced after 1 trials
   
    19:08:00: Balanced after 1 trials
   
    19:09:00: Balanced after 1 trials
   
    19:10:00: Balanced after 1 trials
   
    19:11:00: Balanced after 1 trials
   
    19:12:00: Balanced after 1 trials
   
    19:13:00: Balanced after 1 trials
   
    19:14:00: Balanced after 1 trials
   
    19:15:00: Balanced after 1 trials
   
    19:16:00: Balanced after 1 trials
   
    19:17:00: Balanced after 1 trials
   
    19:18:00: Balanced after 1 trials
   
    19:19:00: Balanced after 1 trials
   
    19:20:00: Balanced after 1 trials
   
    19:21:00: Balanced after 1 trials
   
    19:22:00: Balanced after 1 trials
   
    19:23:00: Balanced after 1 trials
   
    19:24:00: Balanced after 1 trials
   
    19:25:00: Balanced after 1 trials
   
    19:26:00: Balanced after 1 trials
   
    19:27:00: Balanced after 1 trials
   
    19:28:00: Balanced after 1 trials
   
    19:29:00: Balanced after 1 trials
   
    19:30:00: Balanced after 1 trials
   
    19:31:00: Balanced after 1 trials
   
    19:32:00: Balanced after 1 trials
   
    19:33:00: Balanced after 1 trials
   
    19:34:00: Balanced after 1 trials
   
    19:35:00: Balanced after 1 trials
   
    19:36:00: Balanced after 1 trials
   
    19:37:00: Balanced after 1 trials
   
    19:38:00: Balanced after 1 trials
   
    19:39:00: Balanced after 1 trials
   
    19:40:00: Balanced after 1 trials
   
    19:41:00: Balanced after 1 trials
   
    19:42:00: Balanced after 1 trials
   
    19:43:00: Balanced after 1 trials
   
    19:44:00: Balanced after 1 trials
   
    19:45:00: Balanced after 1 trials
   
    19:46:00: Balanced after 1 trials
   
    19:47:00: Balanced after 1 trials
   
    19:48:00: Balanced after 1 trials
   
    19:49:00: Balanced after 1 trials
   
    19:50:00: Balanced after 1 trials
   
    19:51:00: Balanced after 1 trials
   
    19:52:00: Balanced after 1 trials
   
    19:53:00: Balanced after 1 trials
   
    19:54:00: Balanced after 1 trials
   
    19:55:00: Balanced after 1 trials
   
    19:56:00: Balanced after 1 trials
   
    19:57:00: Balanced after 1 trials
   
    19:58:00: Balanced after 1 trials
   
    19:59:00: Balanced after 1 trials
   
    20:00:00: Balanced after 3 trials
   
    20:01:00: Balanced after 1 trials
   
    20:02:00: Balanced after 1 trials
   
    20:03:00: Balanced after 1 trials
   
    20:04:00: Balanced after 1 trials
   
    20:05:00: Balanced after 1 trials
   
    20:06:00: Balanced after 1 trials
   
    20:07:00: Balanced after 1 trials
   
    20:08:00: Balanced after 1 trials
   
    20:09:00: Balanced after 1 trials
   
    20:10:00: Balanced after 1 trials
   
    20:11:00: Balanced after 1 trials
   
    20:12:00: Balanced after 1 trials
   
    20:13:00: Balanced after 1 trials
   
    20:14:00: Balanced after 1 trials
   
    20:15:00: Balanced after 1 trials
   
    20:16:00: Balanced after 1 trials
   
    20:17:00: Balanced after 1 trials
   
    20:18:00: Balanced after 1 trials
   
    20:19:00: Balanced after 1 trials
   
    20:20:00: Balanced after 1 trials
   
    20:21:00: Balanced after 1 trials
   
    20:22:00: Balanced after 1 trials
   
    20:23:00: Balanced after 1 trials
   
    20:24:00: Balanced after 1 trials
   
    20:25:00: Balanced after 1 trials
   
    20:26:00: Balanced after 1 trials
   
    20:27:00: Balanced after 1 trials
   
    20:28:00: Balanced after 1 trials
   
    20:29:00: Balanced after 1 trials
   
    20:30:00: Balanced after 1 trials
   
    20:31:00: Balanced after 1 trials
   
    20:32:00: Balanced after 1 trials
   
    20:33:00: Balanced after 1 trials
   
    20:34:00: Balanced after 1 trials
   
    20:35:00: Balanced after 1 trials
   
    20:36:00: Balanced after 1 trials
   
    20:37:00: Balanced after 1 trials
   
    20:38:00: Balanced after 1 trials
   
    20:39:00: Balanced after 1 trials
   
    20:40:00: Balanced after 1 trials
   
    20:41:00: Balanced after 1 trials
   
    20:42:00: Balanced after 1 trials
   
    20:43:00: Balanced after 1 trials
   
    20:44:00: Balanced after 1 trials
   
    20:45:00: Balanced after 1 trials
   
    20:46:00: Balanced after 1 trials
   
    20:47:00: Balanced after 1 trials
   
    20:48:00: Balanced after 1 trials
   
    20:49:00: Balanced after 1 trials
   
    20:50:00: Balanced after 1 trials
   
    20:51:00: Balanced after 1 trials
   
    20:52:00: Balanced after 1 trials
   
    20:53:00: Balanced after 1 trials
   
    20:54:00: Balanced after 1 trials
   
    20:55:00: Balanced after 1 trials
   
    20:56:00: Balanced after 1 trials
   
    20:57:00: Balanced after 1 trials
   
    20:58:00: Balanced after 1 trials
   
    20:59:00: Balanced after 1 trials
   
    21:00:00: Balanced after 3 trials
   
    21:01:00: Balanced after 1 trials
   
    21:02:00: Balanced after 1 trials
   
    21:03:00: Balanced after 1 trials
   
    21:04:00: Balanced after 1 trials
   
    21:05:00: Balanced after 1 trials
   
    21:06:00: Balanced after 1 trials
   
    21:07:00: Balanced after 1 trials
   
    21:08:00: Balanced after 1 trials
   
    21:09:00: Balanced after 1 trials
   
    21:10:00: Balanced after 1 trials
   
    21:11:00: Balanced after 1 trials
   
    21:12:00: Balanced after 1 trials
   
    21:13:00: Balanced after 1 trials
   
    21:14:00: Balanced after 1 trials
   
    21:15:00: Balanced after 1 trials
   
    21:16:00: Balanced after 1 trials
   
    21:17:00: Balanced after 1 trials
   
    21:18:00: Balanced after 1 trials
   
    21:19:00: Balanced after 1 trials
   
    21:20:00: Balanced after 1 trials
   
    21:21:00: Balanced after 1 trials
   
    21:22:00: Balanced after 1 trials
   
    21:23:00: Balanced after 1 trials
   
    21:24:00: Balanced after 1 trials
   
    21:25:00: Balanced after 5 trials
    21:25:00: Tank 1 is filling at 17.10 ft
    21:25:00: Tank 3 is filling at 29.70 ft
    21:25:00: Pipe 330 changed from open to closed
    21:25:00: Pump 335 changed from closed to open
   
    21:26:00: Balanced after 1 trials
   
    21:27:00: Balanced after 1 trials
   
    21:28:00: Balanced after 1 trials
   
    21:29:00: Balanced after 1 trials
   
    21:30:00: Balanced after 1 trials
   
    21:31:00: Balanced after 1 trials
   
    21:32:00: Balanced after 1 trials
   
    21:33:00: Balanced after 1 trials
   
    21:34:00: Balanced after 1 trials
   
    21:35:00: Balanced after 1 trials
   
    21:36:00: Balanced after 1 trials
   
    21:37:00: Balanced after 1 trials
   
    21:38:00: Balanced after 1 trials
   
    21:39:00: Balanced after 1 trials
   
    21:40:00: Balanced after 1 trials
   
    21:41:00: Balanced after 1 trials
   
    21:42:00: Balanced after 1 trials
   
    21:43:00: Balanced after 1 trials
   
    21:44:00: Balanced after 1 trials
   
    21:45:00: Balanced after 1 trials
   
    21:46:00: Balanced after 1 trials
   
    21:47:00: Balanced after 1 trials
   
    21:48:00: Balanced after 1 trials
   
    21:49:00: Balanced after 1 trials
   
    21:50:00: Balanced after 1 trials
   
    21:51:00: Balanced after 1 trials
   
    21:52:00: Balanced after 1 trials
   
    21:53:00: Balanced after 1 trials
   
    21:54:00: Balanced after 1 trials
   
    21:55:00: Balanced after 1 trials
   
    21:56:00: Balanced after 1 trials
   
    21:57:00: Balanced after 1 trials
   
    21:58:00: Balanced after 1 trials
   
    21:59:00: Balanced after 1 trials
   
    22:00:00: Balanced after 3 trials
    22:00:00: Tank 1 is emptying at 17.27 ft
   
    22:01:00: Balanced after 1 trials
   
    22:02:00: Balanced after 1 trials
   
    22:03:00: Balanced after 1 trials
   
    22:04:00: Balanced after 1 trials
   
    22:05:00: Balanced after 1 trials
   
    22:06:00: Balanced after 1 trials
   
    22:07:00: Balanced after 1 trials
   
    22:08:00: Balanced after 1 trials
   
    22:09:00: Balanced after 1 trials
   
    22:10:00: Balanced after 1 trials
   
    22:11:00: Balanced after 1 trials
   
    22:12:00: Balanced after 1 trials
   
    22:13:00: Balanced after 1 trials
   
    22:14:00: Balanced after 1 trials
   
    22:15:00: Balanced after 1 trials
   
    22:16:00: Balanced after 1 trials
   
    22:17:00: Balanced after 1 trials
   
    22:18:00: Balanced after 1 trials
   
    22:19:00: Balanced after 1 trials
   
    22:20:00: Balanced after 1 trials
   
    22:21:00: Balanced after 1 trials
   
    22:22:00: Balanced after 1 trials
   
    22:23:00: Balanced after 1 trials
   
    22:24:00: Balanced after 1 trials
   
    22:25:00: Balanced after 1 trials
   
    22:26:00: Balanced after 1 trials
   
    22:27:00: Balanced after 1 trials
   
    22:28:00: Balanced after 1 trials
   
    22:29:00: Balanced after 1 trials
   
    22:30:00: Balanced after 1 trials
   
    22:31:00: Balanced after 1 trials
   
    22:32:00: Balanced after 1 trials
   
    22:33:00: Balanced after 1 trials
   
    22:34:00: Balanced after 1 trials
   
    22:35:00: Balanced after 1 trials
   
    22:36:00: Balanced after 1 trials
   
    22:37:00: Balanced after 1 trials
   
    22:38:00: Balanced after 1 trials
   
    22:39:00: Balanced after 1 trials
   
    22:40:00: Balanced after 1 trials
   
    22:41:00: Balanced after 1 trials
   
    22:42:00: Balanced after 1 trials
   
    22:43:00: Balanced after 1 trials
   
    22:44:00: Balanced after 1 trials
   
    22:45:00: Balanced after 1 trials
   
    22:46:00: Balanced after 1 trials
   
    22:47:00: Balanced after 1 trials
   
    22:48:00: Balanced after 1 trials
   
    22:49:00: Balanced after 1 trials
   
    22:50:00: Balanced after 1 trials
   
    22:51:00: Balanced after 1 trials
   
    22:52:00: Balanced after 1 trials
   
    22:53:00: Balanced after 1 trials
   
    22:54:00: Balanced after 1 trials
   
    22:55:00: Balanced after 1 trials
   
    22:56:00: Balanced after 1 trials
   
    22:57:00: Balanced after 1 trials
   
    22:58:00: Balanced after 1 trials
   
    22:59:00: Balanced after 1 trials
   
    23:00:00: Balanced after 3 trials
   
    23:01:00: Balanced after 1 trials
   
    23:02:00: Balanced after 1 trials
   
    23:03:00: Balanced after 1 trials
   
    23:04:00: Balanced after 1 trials
   
    23:05:00: Balanced after 1 trials
   
    23:06:00: Balanced after 1 trials
   
    23:07:00: Balanced after 1 trials
   
    23:08:00: Balanced after 1 trials
   
    23:09:00: Balanced after 1 trials
   
    23:10:00: Balanced after 1 trials
   
    23:11:00: Balanced after 1 trials
   
    23:12:00: Balanced after 1 trials
   
    23:13:00: Balanced after 1 trials
   
    23:14:00: Balanced after 1 trials
   
    23:15:00: Balanced after 1 trials
   
    23:16:00: Balanced after 1 trials
   
    23:17:00: Balanced after 1 trials
   
    23:18:00: Balanced after 1 trials
   
    23:19:00: Balanced after 1 trials
   
    23:20:00: Balanced after 1 trials
   
    23:21:00: Balanced after 1 trials
   
    23:22:00: Balanced after 1 trials
   
    23:23:00: Balanced after 1 trials
   
    23:24:00: Balanced after 1 trials
   
    23:25:00: Balanced after 1 trials
   
    23:26:00: Balanced after 1 trials
   
    23:27:00: Balanced after 1 trials
   
    23:28:00: Balanced after 1 trials
   
    23:29:00: Balanced after 1 trials
   
    23:30:00: Balanced after 1 trials
   
    23:31:00: Balanced after 1 trials
   
    23:32:00: Balanced after 1 trials
   
    23:33:00: Balanced after 1 trials
   
    23:34:00: Balanced after 1 trials
   
    23:35:00: Balanced after 1 trials
   
    23:36:00: Balanced after 1 trials
   
    23:37:00: Balanced after 1 trials
   
    23:38:00: Balanced after 1 trials
   
    23:39:00: Balanced after 1 trials
   
    23:40:00: Balanced after 1 trials
   
    23:41:00: Balanced after 1 trials
   
    23:42:00: Balanced after 1 trials
   
    23:43:00: Balanced after 1 trials
   
    23:44:00: Balanced after 1 trials
   
    23:45:00: Balanced after 1 trials
   
    23:46:00: Balanced after 1 trials
   
    23:47:00: Balanced after 1 trials
   
    23:48:00: Balanced after 1 trials
   
    23:49:00: Balanced after 1 trials
   
    23:50:00: Balanced after 1 trials
   
    23:51:00: Balanced after 1 trials
   
    23:52:00: Balanced after 1 trials
   
    23:53:00: Balanced after 1 trials
   
    23:54:00: Balanced after 1 trials
   
    23:55:00: Balanced after 1 trials
   
    23:56:00: Balanced after 1 trials
   
    23:57:00: Balanced after 1 trials
   
    23:58:00: Balanced after 1 trials
   
    23:59:00: Balanced after 1 trials
   
    24:00:00: Balanced after 3 trials
    24:00:00: Tank 1 is filling at 15.90 ft
   
    24:01:00: Balanced after 1 trials
   
    24:02:00: Balanced after 1 trials
   
    24:03:00: Balanced after 1 trials
   
    24:04:00: Balanced after 1 trials
   
    24:05:00: Balanced after 1 trials
   
    24:06:00: Balanced after 1 trials
   
    24:07:00: Balanced after 1 trials
   
    24:08:00: Balanced after 1 trials
   
    24:09:00: Balanced after 1 trials
   
    24:10:00: Balanced after 1 trials
   
    24:11:00: Balanced after 1 trials
   
    24:12:00: Balanced after 1 trials
   
    24:13:00: Balanced after 1 trials
   
    24:14:00: Balanced after 1 trials
   
    24:15:00: Balanced after 1 trials
   
    24:16:00: Balanced after 1 trials
   
    24:17:00: Balanced after 1 trials
   
    24:18:00: Balanced after 1 trials
   
    24:19:00: Balanced after 1 trials
   
    24:20:00: Balanced after 1 trials
   
    24:21:00: Balanced after 1 trials
   
    24:22:00: Balanced after 1 trials
   
    24:23:00: Balanced after 1 trials
   
    24:24:00: Balanced after 1 trials
   
    24:25:00: Balanced after 1 trials
   
    24:26:00: Balanced after 1 trials
   
    24:27:00: Balanced after 1 trials
   
    24:28:00: Balanced after 1 trials
   
    24:29:00: Balanced after 1 trials
   
    24:30:00: Balanced after 1 trials
   
    24:31:00: Balanced after 1 trials
   
    24:32:00: Balanced after 1 trials
   
    24:33:00: Balanced after 1 trials
   
    24:34:00: Balanced after 1 trials
   
    24:35:00: Balanced after 1 trials
   
    24:36:00: Balanced after 1 trials
   
    24:37:00: Balanced after 1 trials
   
    24:38:00: Balanced after 1 trials
   
    24:39:00: Balanced after 1 trials
   
    24:40:00: Balanced after 1 trials
   
    24:41:00: Balanced after 1 trials
   
    24:42:00: Balanced after 1 trials
   
    24:43:00: Balanced after 1 trials
   
    24:44:00: Balanced after 1 trials
   
    24:45:00: Balanced after 1 trials
   
    24:46:00: Balanced after 1 trials
   
    24:47:00: Balanced after 1 trials
   
    24:48:00: Balanced after 1 trials
   
    24:49:00: Balanced after 1 trials
   
    24:50:00: Balanced after 1 trials
   
    24:51:00: Balanced after 1 trials
   
    24:52:00: Balanced after 1 trials
   
    24:53:00: Balanced after 1 trials
   
    24:54:00: Balanced after 1 trials
   
    24:55:00: Balanced after 1 trials
   
    24:56:00: Balanced after 1 trials
   
    24:57:00: Balanced after 1 trials
   
    24:58:00: Balanced after 1 trials
   
    24:59:00: Balanced after 1 trials
   
    25:00:00: Balanced after 7 trials
    25:00:00: Reservoir Lake is emptying
    25:00:00: Pump 10 changed from closed to open
   
    25:01:00: Balanced after 1 trials
   
    25:02:00: Balanced after 1 trials
   
    25:03:00: Balanced after 1 trials
   
    25:04:00: Balanced after 1 trials
   
    25:05:00: Balanced after 1 trials
   
    25:06:00: Balanced after 1 trials
   
    25:07:00: Balanced after 1 trials
   
    25:08:00: Balanced after 1 trials
   
    25:09:00: Balanced after 1 trials
   
    25:10:00: Balanced after 1 trials
   
    25:11:00: Balanced after 1 trials
   
    25:12:00: Balanced after 1 trials
   
    25:13:00: Balanced after 1 trials
   
    25:14:00: Balanced after 1 trials
   
    25:15:00: Balanced after 1 trials
   
    25:16:00: Balanced after 1 trials
   
    25:17:00: Balanced after 1 trials
   
    25:18:00: Balanced after 1 trials
   
    25:19:00: Balanced after 1 trials
   
    25:20:00: Balanced after 1 trials
   
    25:21:00: Balanced after 1 trials
   
    25:22:00: Balanced after 1 trials
   
    25:23:00: Balanced after 1 trials
   
    25:24:00: Balanced after 1 trials
   
    25:25:00: Balanced after 1 trials
   
    25:26:00: Balanced after 1 trials
   
    25:27:00: Balanced after 1 trials
   
    25:28:00: Balanced after 1 trials
   
    25:29:00: Balanced after 1 trials
   
    25:30:00: Balanced after 1 trials
   
    25:31:00: Balanced after 1 trials
   
    25:32:00: Balanced after 1 trials
   
    25:33:00: Balanced after 1 trials
   
    25:34:00: Balanced after 1 trials
   
    25:35:00: Balanced after 1 trials
   
    25:36:00: Balanced after 1 trials
   
    25:37:00: Balanced after 1 trials
   
    25:38:00: Balanced after 1 trials
   
    25:39:00: Balanced after 1 trials
   
    25:40:00: Balanced after 1 trials
   
    25:41:00: Balanced after 1 trials
   
    25:42:00: Balanced after 1 trials
   
    25:43:00: Balanced after 1 trials
   
    25:44:00: Balanced after 1 trials
   
    25:45:00: Balanced after 1 trials
   
    25:46:00: Balanced after 1 trials
   
    25:47:00: Balanced after 1 trials
   
    25:48:00: Balanced after 1 trials
   
    25:49:00: Balanced after 1 trials
   
    25:50:00: Balanced after 1 trials
   
    25:51:00: Balanced after 1 trials
   
    25:52:00: Balanced after 1 trials
   
    25:53:00: Balanced after 1 trials
   
    25:54:00: Balanced after 1 trials
   
    25:55:00: Balanced after 1 trials
   
    25:56:00: Balanced after 1 trials
   
    25:57:00: Balanced after 1 trials
   
    25:58:00: Balanced after 1 trials
   
    25:59:00: Balanced after 1 trials
   
    26:00:00: Balanced after 3 trials
    26:00:00: Tank 2 is filling at 21.91 ft
   
    26:01:00: Balanced after 1 trials
   
    26:02:00: Balanced after 1 trials
   
    26:03:00: Balanced after 1 trials
   
    26:04:00: Balanced after 1 trials
   
    26:05:00: Balanced after 1 trials
   
    26:06:00: Balanced after 1 trials
   
    26:07:00: Balanced after 1 trials
   
    26:08:00: Balanced after 1 trials
   
    26:09:00: Balanced after 1 trials
   
    26:10:00: Balanced after 1 trials
   
    26:11:00: Balanced after 1 trials
   
    26:12:00: Balanced after 1 trials
   
    26:13:00: Balanced after 1 trials
   
    26:14:00: Balanced after 1 trials
   
    26:15:00: Balanced after 1 trials
   
    26:16:00: Balanced after 1 trials
   
    26:17:00: Balanced after 1 trials
   
    26:18:00: Balanced after 1 trials
   
    26:19:00: Balanced after 1 trials
   
    26:20:00: Balanced after 1 trials
   
    26:21:00: Balanced after 1 trials
   
    26:22:00: Balanced after 1 trials
   
    26:23:00: Balanced after 1 trials
   
    26:24:00: Balanced after 1 trials
   
    26:25:00: Balanced after 1 trials
   
    26:26:00: Balanced after 1 trials
   
    26:27:00: Balanced after 1 trials
   
    26:28:00: Balanced after 1 trials
   
    26:29:00: Balanced after 1 trials
   
    26:30:00: Balanced after 1 trials
   
    26:31:00: Balanced after 1 trials
   
    26:32:00: Balanced after 1 trials
   
    26:33:00: Balanced after 1 trials
   
    26:34:00: Balanced after 1 trials
   
    26:35:00: Balanced after 1 trials
   
    26:36:00: Balanced after 1 trials
   
    26:37:00: Balanced after 1 trials
   
    26:38:00: Balanced after 1 trials
   
    26:39:00: Balanced after 1 trials
   
    26:40:00: Balanced after 1 trials
   
    26:41:00: Balanced after 1 trials
   
    26:42:00: Balanced after 1 trials
   
    26:43:00: Balanced after 1 trials
   
    26:44:00: Balanced after 1 trials
   
    26:45:00: Balanced after 1 trials
   
    26:46:00: Balanced after 1 trials
   
    26:47:00: Balanced after 1 trials
   
    26:48:00: Balanced after 1 trials
   
    26:49:00: Balanced after 1 trials
   
    26:50:00: Balanced after 1 trials
   
    26:51:00: Balanced after 1 trials
   
    26:52:00: Balanced after 1 trials
   
    26:53:00: Balanced after 1 trials
   
    26:54:00: Balanced after 1 trials
   
    26:55:00: Balanced after 1 trials
   
    26:56:00: Balanced after 1 trials
   
    26:57:00: Balanced after 1 trials
   
    26:58:00: Balanced after 1 trials
   
    26:59:00: Balanced after 1 trials
   
    27:00:00: Balanced after 4 trials
    27:00:00: Tank 3 is emptying at 34.42 ft
    27:00:00: Pipe 330 changed from closed to open
    27:00:00: Pump 335 changed from open to closed
   
    27:01:00: Balanced after 1 trials
   
    27:02:00: Balanced after 1 trials
   
    27:03:00: Balanced after 1 trials
   
    27:04:00: Balanced after 1 trials
   
    27:05:00: Balanced after 1 trials
   
    27:06:00: Balanced after 1 trials
   
    27:07:00: Balanced after 1 trials
   
    27:08:00: Balanced after 1 trials
   
    27:09:00: Balanced after 1 trials
   
    27:10:00: Balanced after 1 trials
   
    27:11:00: Balanced after 1 trials
   
    27:12:00: Balanced after 1 trials
   
    27:13:00: Balanced after 1 trials
   
    27:14:00: Balanced after 1 trials
   
    27:15:00: Balanced after 1 trials
   
    27:16:00: Balanced after 1 trials
   
    27:17:00: Balanced after 1 trials
   
    27:18:00: Balanced after 1 trials
   
    27:19:00: Balanced after 1 trials
   
    27:20:00: Balanced after 1 trials
   
    27:21:00: Balanced after 1 trials
   
    27:22:00: Balanced after 1 trials
   
    27:23:00: Balanced after 1 trials
   
    27:24:00: Balanced after 1 trials
   
    27:25:00: Balanced after 1 trials
   
    27:26:00: Balanced after 1 trials
   
    27:27:00: Balanced after 1 trials
   
    27:28:00: Balanced after 1 trials
   
    27:29:00: Balanced after 1 trials
   
    27:30:00: Balanced after 1 trials
   
    27:31:00: Balanced after 1 trials
   
    27:32:00: Balanced after 1 trials
   
    27:33:00: Balanced after 1 trials
   
    27:34:00: Balanced after 1 trials
   
    27:35:00: Balanced after 1 trials
   
    27:36:00: Balanced after 1 trials
   
    27:37:00: Balanced after 1 trials
   
    27:38:00: Balanced after 1 trials
   
    27:39:00: Balanced after 1 trials
   
    27:40:00: Balanced after 1 trials
   
    27:41:00: Balanced after 1 trials
   
    27:42:00: Balanced after 1 trials
   
    27:43:00: Balanced after 1 trials
   
    27:44:00: Balanced after 1 trials
   
    27:45:00: Balanced after 1 trials
   
    27:46:00: Balanced after 1 trials
   
    27:47:00: Balanced after 1 trials
   
    27:48:00: Balanced after 1 trials
   
    27:49:00: Balanced after 1 trials
   
    27:50:00: Balanced after 1 trials
   
    27:51:00: Balanced after 1 trials
   
    27:52:00: Balanced after 1 trials
   
    27:53:00: Balanced after 1 trials
   
    27:54:00: Balanced after 1 trials
   
    27:55:00: Balanced after 1 trials
   
    27:56:00: Balanced after 1 trials
   
    27:57:00: Balanced after 1 trials
   
    27:58:00: Balanced after 1 trials
   
    27:59:00: Balanced after 1 trials
   
    28:00:00: Balanced after 3 trials
    28:00:00: Tank 3 is filling at 34.21 ft
   
    28:01:00: Balanced after 1 trials
   
    28:02:00: Balanced after 1 trials
   
    28:03:00: Balanced after 1 trials
   
    28:04:00: Balanced after 1 trials
   
    28:05:00: Balanced after 1 trials
   
    28:06:00: Balanced after 1 trials
   
    28:07:00: Balanced after 1 trials
   
    28:08:00: Balanced after 1 trials
   
    28:09:00: Balanced after 1 trials
   
    28:10:00: Balanced after 1 trials
   
    28:11:00: Balanced after 1 trials
   
    28:12:00: Balanced after 1 trials
   
    28:13:00: Balanced after 1 trials
   
    28:14:00: Balanced after 1 trials
   
    28:15:00: Balanced after 1 trials
   
    28:16:00: Balanced after 1 trials
   
    28:17:00: Balanced after 1 trials
   
    28:18:00: Balanced after 1 trials
   
    28:19:00: Balanced after 1 trials
   
    28:20:00: Balanced after 1 trials
   
    28:21:00: Balanced after 1 trials
   
    28:22:00: Balanced after 1 trials
   
    28:23:00: Balanced after 1 trials
   
    28:24:00: Balanced after 1 trials
   
    28:25:00: Balanced after 1 trials
   
    28:26:00: Balanced after 1 trials
   
    28:27:00: Balanced after 1 trials
   
    28:28:00: Balanced after 1 trials
   
    28:29:00: Balanced after 1 trials
   
    28:30:00: Balanced after 1 trials
   
    28:31:00: Balanced after 1 trials
   
    28:32:00: Balanced after 1 trials
   
    28:33:00: Balanced after 1 trials
   
    28:34:00: Balanced after 1 trials
   
    28:35:00: Balanced after 1 trials
   
    28:36:00: Balanced after 1 trials
   
    28:37:00: Balanced after 1 trials
   
    28:38:00: Balanced after 1 trials
   
    28:39:00: Balanced after 1 trials
   
    28:40:00: Balanced after 1 trials
   
    28:41:00: Balanced after 1 trials
   
    28:42:00: Balanced after 1 trials
   
    28:43:00: Balanced after 1 trials
   
    28:44:00: Balanced after 1 trials
   
    28:45:00: Balanced after 1 trials
   
    28:46:00: Balanced after 1 trials
   
    28:47:00: Balanced after 1 trials
   
    28:48:00: Balanced after 1 trials
   
    28:49:00: Balanced after 1 trials
   
    28:50:00: Balanced after 1 trials
   
    28:51:00: Balanced after 1 trials
   
    28:52:00: Balanced after 1 trials
   
    28:53:00: Balanced after 1 trials
   
    28:54:00: Balanced after 1 trials
   
    28:55:00: Balanced after 1 trials
   
    28:56:00: Balanced after 1 trials
   
    28:57:00: Balanced after 1 trials
   
    28:58:00: Balanced after 1 trials
   
    28:59:00: Balanced after 1 trials
   
    29:00:00: Balanced after 3 trials
    29:00:00: Tank 3 is emptying at 34.46 ft
   
    29:01:00: Balanced after 1 trials
   
    29:02:00: Balanced after 1 trials
   
    29:03:00: Balanced after 1 trials
   
    29:04:00: Balanced after 1 trials
   
    29:05:00: Balanced after 1 trials
   
    29:06:00: Balanced after 1 trials
   
    29:07:00: Balanced after 1 trials
   
    29:08:00: Balanced after 1 trials
   
    29:09:00: Balanced after 1 trials
   
    29:10:00: Balanced after 1 trials
   
    29:11:00: Balanced after 1 trials
   
    29:12:00: Balanced after 1 trials
   
    29:13:00: Balanced after 1 trials
   
    29:14:00: Balanced after 1 trials
   
    29:15:00: Balanced after 1 trials
   
    29:16:00: Balanced after 1 trials
   
    29:17:00: Balanced after 1 trials
   
    29:18:00: Balanced after 1 trials
   
    29:19:00: Balanced after 1 trials
   
    29:20:00: Balanced after 1 trials
   
    29:21:00: Balanced after 1 trials
   
    29:22:00: Balanced after 1 trials
   
    29:23:00: Balanced after 1 trials
   
    29:24:00: Balanced after 1 trials
   
    29:25:00: Balanced after 1 trials
   
    29:26:00: Balanced after 1 trials
   
    29:27:00: Balanced after 1 trials
   
    29:28:00: Balanced after 1 trials
   
    29:29:00: Balanced after 1 trials
   
    29:30:00: Balanced after 1 trials
   
    29:31:00: Balanced after 1 trials
   
    29:32:00: Balanced after 1 trials
   
    29:33:00: Balanced after 1 trials
   
    29:34:00: Balanced after 1 trials
   
    29:35:00: Balanced after 1 trials
   
    29:36:00: Balanced after 1 trials
   
    29:37:00: Balanced after 1 trials
   
    29:38:00: Balanced after 1 trials
   
    29:39:00: Balanced after 1 trials
   
    29:40:00: Balanced after 1 trials
   
    29:41:00: Balanced after 1 trials
   
    29:42:00: Balanced after 1 trials
   
    29:43:00: Balanced after 1 trials
   
    29:44:00: Balanced after 1 trials
   
    29:45:00: Balanced after 1 trials
   
    29:46:00: Balanced after 1 trials
   
    29:47:00: Balanced after 1 trials
   
    29:48:00: Balanced after 1 trials
   
    29:49:00: Balanced after 1 trials
   
    29:50:00: Balanced after 1 trials
   
    29:51:00: Balanced after 1 trials
   
    29:52:00: Balanced after 1 trials
   
    29:53:00: Balanced after 1 trials
   
    29:54:00: Balanced after 1 trials
   
    29:55:00: Balanced after 1 trials
   
    29:56:00: Balanced after 1 trials
   
    29:57:00: Balanced after 1 trials
   
    29:58:00: Balanced after 1 trials
   
    29:59:00: Balanced after 1 trials
   
    30:00:00: Balanced after 3 trials
    30:00:00: Tank 3 is filling at 34.33 ft
   
    30:01:00: Balanced after 1 trials
   
    30:02:00: Balanced after 1 trials
   
    30:03:00: Balanced after 1 trials
   
    30:04:00: Balanced after 1 trials
   
    30:05:00: Balanced after 1 trials
   
    30:06:00: Balanced after 1 trials
   
    30:07:00: Balanced after 1 trials
   
    30:08:00: Balanced after 1 trials
   
    30:09:00: Balanced after 1 trials
   
    30:10:00: Balanced after 1 trials
   
    30:11:00: Balanced after 1 trials
   
    30:12:00: Balanced after 1 trials
   
    30:13:00: Balanced after 1 trials
   
    30:14:00: Balanced after 1 trials
   
    30:15:00: Balanced after 1 trials
   
    30:16:00: Balanced after 1 trials
   
    30:17:00: Balanced after 1 trials
   
    30:18:00: Balanced after 1 trials
   
    30:19:00: Balanced after 1 trials
   
    30:20:00: Balanced after 1 trials
   
    30:21:00: Balanced after 1 trials
   
    30:22:00: Balanced after 1 trials
   
    30:23:00: Balanced after 1 trials
   
    30:24:00: Balanced after 1 trials
   
    30:25:00: Balanced after 1 trials
   
    30:26:00: Balanced after 1 trials
   
    30:27:00: Balanced after 1 trials
   
    30:28:00: Balanced after 1 trials
   
    30:29:00: Balanced after 1 trials
   
    30:30:00: Balanced after 1 trials
   
    30:31:00: Balanced after 1 trials
   
    30:32:00: Balanced after 1 trials
   
    30:33:00: Balanced after 1 trials
   
    30:34:00: Balanced after 1 trials
   
    30:35:00: Balanced after 1 trials
   
    30:36:00: Balanced after 1 trials
   
[...]
   
    92:28:00: Balanced after 1 trials
   
    92:29:00: Balanced after 1 trials
   
    92:30:00: Balanced after 1 trials
   
    92:31:00: Balanced after 1 trials
   
    92:32:00: Balanced after 1 trials
   
    92:33:00: Balanced after 1 trials
   
    92:34:00: Balanced after 1 trials
   
    92:35:00: Balanced after 1 trials
   
    92:36:00: Balanced after 1 trials
   
    92:37:00: Balanced after 1 trials
   
    92:38:00: Balanced after 1 trials
   
    92:39:00: Balanced after 1 trials
   
    92:40:00: Balanced after 1 trials
   
    92:41:00: Balanced after 1 trials
   
    92:42:00: Balanced after 1 trials
   
    92:43:00: Balanced after 1 trials
   
    92:44:00: Balanced after 1 trials
   
    92:45:00: Balanced after 1 trials
   
    92:46:00: Balanced after 1 trials
   
    92:47:00: Balanced after 1 trials
   
    92:48:00: Balanced after 1 trials
   
    92:49:00: Balanced after 1 trials
   
    92:50:00: Balanced after 1 trials
   
    92:51:00: Balanced after 1 trials
   
    92:52:00: Balanced after 1 trials
   
    92:53:00: Balanced after 1 trials
   
    92:54:00: Balanced after 1 trials
   
    92:55:00: Balanced after 1 trials
   
    92:56:00: Balanced after 1 trials
   
    92:57:00: Balanced after 1 trials
   
    92:58:00: Balanced after 1 trials
   
    92:59:00: Balanced after 1 trials
   
    93:00:00: Balanced after 3 trials
   
    93:01:00: Balanced after 1 trials
   
    93:02:00: Balanced after 1 trials
   
    93:03:00: Balanced after 1 trials
   
    93:04:00: Balanced after 1 trials
   
    93:05:00: Balanced after 1 trials
   
    93:06:00: Balanced after 1 trials
   
    93:07:00: Balanced after 1 trials
   
    93:08:00: Balanced after 1 trials
   
    93:09:00: Balanced after 1 trials
   
    93:10:00: Balanced after 1 trials
   
    93:11:00: Balanced after 1 trials
   
    93:12:00: Balanced after 1 trials
   
    93:13:00: Balanced after 1 trials
   
    93:14:00: Balanced after 1 trials
   
    93:15:00: Balanced after 1 trials
   
    93:16:00: Balanced after 1 trials
   
    93:17:00: Balanced after 1 trials
   
    93:18:00: Balanced after 1 trials
   
    93:19:00: Balanced after 1 trials
   
    93:20:00: Balanced after 1 trials
   
    93:21:00: Balanced after 1 trials
   
    93:22:00: Balanced after 1 trials
   
    93:23:00: Balanced after 1 trials
   
    93:24:00: Balanced after 1 trials
   
    93:25:00: Balanced after 1 trials
   
    93:26:00: Balanced after 1 trials
   
    93:27:00: Balanced after 1 trials
   
    93:28:00: Balanced after 1 trials
   
    93:29:00: Balanced after 1 trials
   
    93:30:00: Balanced after 1 trials
   
    93:31:00: Balanced after 1 trials
   
    93:32:00: Balanced after 1 trials
   
    93:33:00: Balanced after 1 trials
   
    93:34:00: Balanced after 5 trials
    93:34:00: Tank 1 is filling at 17.10 ft
    93:34:00: Tank 3 is filling at 29.71 ft
    93:34:00: Pipe 330 changed from open to closed
    93:34:00: Pump 335 changed from closed to open
   
    93:35:00: Balanced after 1 trials
   
    93:36:00: Balanced after 1 trials
   
    93:37:00: Balanced after 1 trials
   
    93:38:00: Balanced after 1 trials
   
    93:39:00: Balanced after 1 trials
   
    93:40:00: Balanced after 1 trials
   
    93:41:00: Balanced after 1 trials
   
    93:42:00: Balanced after 1 trials
   
    93:43:00: Balanced after 1 trials
   
    93:44:00: Balanced after 1 trials
   
    93:45:00: Balanced after 1 trials
   
    93:46:00: Balanced after 1 trials
   
    93:47:00: Balanced after 1 trials
   
    93:48:00: Balanced after 1 trials
   
    93:49:00: Balanced after 1 trials
   
    93:50:00: Balanced after 1 trials
   
    93:51:00: Balanced after 1 trials
   
    93:52:00: Balanced after 1 trials
   
    93:53:00: Balanced after 1 trials
   
    93:54:00: Balanced after 1 trials
   
    93:55:00: Balanced after 1 trials
   
    93:56:00: Balanced after 1 trials
   
    93:57:00: Balanced after 1 trials
   
    93:58:00: Balanced after 1 trials
   
    93:59:00: Balanced after 1 trials
   
    94:00:00: Balanced after 3 trials
    94:00:00: Tank 1 is emptying at 17.22 ft
   
    94:01:00: Balanced after 1 trials
   
    94:02:00: Balanced after 1 trials
   
    94:03:00: Balanced after 1 trials
   
    94:04:00: Balanced after 1 trials
   
    94:05:00: Balanced after 1 trials
   
    94:06:00: Balanced after 1 trials
   
    94:07:00: Balanced after 1 trials
   
    94:08:00: Balanced after 1 trials
   
    94:09:00: Balanced after 1 trials
   
    94:10:00: Balanced after 1 trials
   
    94:11:00: Balanced after 1 trials
   
    94:12:00: Balanced after 1 trials
   
    94:13:00: Balanced after 1 trials
   
    94:14:00: Balanced after 1 trials
   
    94:15:00: Balanced after 1 trials
   
    94:16:00: Balanced after 1 trials
   
    94:17:00: Balanced after 1 trials
   
    94:18:00: Balanced after 1 trials
   
    94:19:00: Balanced after 1 trials
   
    94:20:00: Balanced after 1 trials
   
    94:21:00: Balanced after 1 trials
   
    94:22:00: Balanced after 1 trials
   
    94:23:00: Balanced after 1 trials
   
    94:24:00: Balanced after 1 trials
   
    94:25:00: Balanced after 1 trials
   
    94:26:00: Balanced after 1 trials
   
    94:27:00: Balanced after 1 trials
   
    94:28:00: Balanced after 1 trials
   
    94:29:00: Balanced after 1 trials
   
    94:30:00: Balanced after 1 trials
   
    94:31:00: Balanced after 1 trials
   
    94:32:00: Balanced after 1 trials
   
    94:33:00: Balanced after 1 trials
   
    94:34:00: Balanced after 1 trials
   
    94:35:00: Balanced after 1 trials
   
    94:36:00: Balanced after 1 trials
   
    94:37:00: Balanced after 1 trials
   
    94:38:00: Balanced after 1 trials
   
    94:39:00: Balanced after 1 trials
   
    94:40:00: Balanced after 1 trials
   
    94:41:00: Balanced after 1 trials
   
    94:42:00: Balanced after 1 trials
   
    94:43:00: Balanced after 1 trials
   
    94:44:00: Balanced after 1 trials
   
    94:45:00: Balanced after 1 trials
   
    94:46:00: Balanced after 1 trials
   
    94:47:00: Balanced after 1 trials
   
    94:48:00: Balanced after 1 trials
   
    94:49:00: Balanced after 1 trials
   
    94:50:00: Balanced after 1 trials
   
    94:51:00: Balanced after 1 trials
   
    94:52:00: Balanced after 1 trials
   
    94:53:00: Balanced after 1 trials
   
    94:54:00: Balanced after 1 trials
   
    94:55:00: Balanced after 1 trials
   
    94:56:00: Balanced after 1 trials
   
    94:57:00: Balanced after 1 trials
   
    94:58:00: Balanced after 1 trials
   
    94:59:00: Balanced after 1 trials
   
    95:00:00: Balanced after 3 trials
   
    95:01:00: Balanced after 1 trials
   
    95:02:00: Balanced after 1 trials
   
    95:03:00: Balanced after 1 trials
   
    95:04:00: Balanced after 1 trials
   
    95:05:00: Balanced after 1 trials
   
    95:06:00: Balanced after 1 trials
   
    95:07:00: Balanced after 1 trials
   
    95:08:00: Balanced after 1 trials
   
    95:09:00: Balanced after 1 trials
   
    95:10:00: Balanced after 1 trials
   
    95:11:00: Balanced after 1 trials
   
    95:12:00: Balanced after 1 trials
   
    95:13:00: Balanced after 1 trials
   
    95:14:00: Balanced after 1 trials
   
    95:15:00: Balanced after 1 trials
   
    95:16:00: Balanced after 1 trials
   
    95:17:00: Balanced after 1 trials
   
    95:18:00: Balanced after 1 trials
   
    95:19:00: Balanced after 1 trials
   
    95:20:00: Balanced after 1 trials
   
    95:21:00: Balanced after 1 trials
   
    95:22:00: Balanced after 1 trials
   
    95:23:00: Balanced after 1 trials
   
    95:24:00: Balanced after 1 trials
   
    95:25:00: Balanced after 1 trials
   
    95:26:00: Balanced after 1 trials
   
    95:27:00: Balanced after 1 trials
   
    95:28:00: Balanced after 1 trials
   
    95:29:00: Balanced after 1 trials
   
    95:30:00: Balanced after 1 trials
   
    95:31:00: Balanced after 1 trials
   
    95:32:00: Balanced after 1 trials
   
    95:33:00: Balanced after 1 trials
   
    95:34:00: Balanced after 1 trials
   
    95:35:00: Balanced after 1 trials
   
    95:36:00: Balanced after 1 trials
   
    95:37:00: Balanced after 1 trials
   
    95:38:00: Balanced after 1 trials
   
    95:39:00: Balanced after 1 trials
   
    95:40:00: Balanced after 1 trials
   
    95:41:00: Balanced after 1 trials
   
    95:42:00: Balanced after 1 trials
   
    95:43:00: Balanced after 1 trials
   
    95:44:00: Balanced after 1 trials
   
    95:45:00: Balanced after 1 trials
   
    95:46:00: Balanced after 1 trials
   
    95:47:00: Balanced after 1 trials
   
    95:48:00: Balanced after 1 trials
   
    95:49:00: Balanced after 1 trials
   
    95:50:00: Balanced after 1 trials
   
    95:51:00: Balanced after 1 trials
   
    95:52:00: Balanced after 1 trials
   
    95:53:00: Balanced after 1 trials
   
    95:54:00: Balanced after 1 trials
   
    95:55:00: Balanced after 1 trials
   
    95:56:00: Balanced after 1 trials
   
    95:57:00: Balanced after 1 trials
   
    95:58:00: Balanced after 1 trials
   
    95:59:00: Balanced after 1 trials
   
    96:00:00: Balanced after 3 trials
    96:00:00: Tank 1 is filling at 15.84 ft
   
    96:01:00: Balanced after 1 trials
   
    96:02:00: Balanced after 1 trials
   
    96:03:00: Balanced after 1 trials
   
    96:04:00: Balanced after 1 trials
   
    96:05:00: Balanced after 1 trials
   
    96:06:00: Balanced after 1 trials
   
    96:07:00: Balanced after 1 trials
   
    96:08:00: Balanced after 1 trials
   
    96:09:00: Balanced after 1 trials
   
    96:10:00: Balanced after 1 trials
   
    96:11:00: Balanced after 1 trials
   
    96:12:00: Balanced after 1 trials
   
    96:13:00: Balanced after 1 trials
   
    96:14:00: Balanced after 1 trials
   
    96:15:00: Balanced after 1 trials
   
    96:16:00: Balanced after 1 trials
   
    96:17:00: Balanced after 1 trials
   
    96:18:00: Balanced after 1 trials
   
    96:19:00: Balanced after 1 trials
   
    96:20:00: Balanced after 1 trials
   
    96:21:00: Balanced after 1 trials
   
    96:22:00: Balanced after 1 trials
   
    96:23:00: Balanced after 1 trials
   
    96:24:00: Balanced after 1 trials
   
    96:25:00: Balanced after 1 trials
   
    96:26:00: Balanced after 1 trials
   
    96:27:00: Balanced after 1 trials
   
    96:28:00: Balanced after 1 trials
   
    96:29:00: Balanced after 1 trials
   
    96:30:00: Balanced after 1 trials
   
    96:31:00: Balanced after 1 trials
   
    96:32:00: Balanced after 1 trials
   
    96:33:00: Balanced after 1 trials
   
    96:34:00: Balanced after 1 trials
   
    96:35:00: Balanced after 1 trials
   
    96:36:00: Balanced after 1 trials
   
    96:37:00: Balanced after 1 trials
   
    96:38:00: Balanced after 1 trials
   
    96:39:00: Balanced after 1 trials
   
    96:40:00: Balanced after 1 trials
   
    96:41:00: Balanced after 1 trials
   
    96:42:00: Balanced after 1 trials
   
    96:43:00: Balanced after 1 trials
   
    96:44:00: Balanced after 1 trials
   
    96:45:00: Balanced after 1 trials
   
    96:46:00: Balanced after 1 trials
   
    96:47:00: Balanced after 1 trials
   
    96:48:00: Balanced after 1 trials
   
    96:49:00: Balanced after 1 trials
   
    96:50:00: Balanced after 1 trials
   
    96:51:00: Balanced after 1 trials
   
    96:52:00: Balanced after 1 trials
   
    96:53:00: Balanced after 1 trials
   
    96:54:00: Balanced after 1 trials
   
    96:55:00: Balanced after 1 trials
   
    96:56:00: Balanced after 1 trials
   
    96:57:00: Balanced after 1 trials
   
    96:58:00: Balanced after 1 trials
   
    96:59:00: Balanced after 1 trials
   
    97:00:00: Balanced after 7 trials
    97:00:00: Reservoir Lake is emptying
    97:00:00: Pump 10 changed from closed to open
   
    97:01:00: Balanced after 1 trials
   
    97:02:00: Balanced after 1 trials
   
    97:03:00: Balanced after 1 trials
   
    97:04:00: Balanced after 1 trials
   
    97:05:00: Balanced after 1 trials
   
    97:06:00: Balanced after 1 trials
   
    97:07:00: Balanced after 1 trials
   
    97:08:00: Balanced after 1 trials
   
    97:09:00: Balanced after 1 trials
   
    97:10:00: Balanced after 1 trials
   
    97:11:00: Balanced after 1 trials
   
    97:12:00: Balanced after 1 trials
   
    97:13:00: Balanced after 1 trials
   
    97:14:00: Balanced after 1 trials
   
    97:15:00: Balanced after 1 trials
   
    97:16:00: Balanced after 1 trials
   
    97:17:00: Balanced after 1 trials
   
    97:18:00: Balanced after 1 trials
   
    97:19:00: Balanced after 1 trials
   
    97:20:00: Balanced after 1 trials
   
    97:21:00: Balanced after 1 trials
   
    97:22:00: Balanced after 1 trials
   
    97:23:00: Balanced after 1 trials
   
    97:24:00: Balanced after 1 trials
   
    97:25:00: Balanced after 1 trials
   
    97:26:00: Balanced after 1 trials
   
    97:27:00: Balanced after 1 trials
   
    97:28:00: Balanced after 1 trials
   
    97:29:00: Balanced after 1 trials
   
    97:30:00: Balanced after 1 trials
   
    97:31:00: Balanced after 1 trials
   
    97:32:00: Balanced after 1 trials
   
    97:33:00: Balanced after 1 trials
   
    97:34:00: Balanced after 1 trials
   
    97:35:00: Balanced after 1 trials
   
    97:36:00: Balanced after 1 trials
   
    97:37:00: Balanced after 1 trials
   
    97:38:00: Balanced after 1 trials
   
    97:39:00: Balanced after 1 trials
   
    97:40:00: Balanced after 1 trials
   
    97:41:00: Balanced after 1 trials
   
    97:42:00: Balanced after 1 trials
   
    97:43:00: Balanced after 1 trials
   
    97:44:00: Balanced after 1 trials
   
    97:45:00: Balanced after 1 trials
   
    97:46:00: Balanced after 1 trials
   
    97:47:00: Balanced after 1 trials
   
    97:48:00: Balanced after 1 trials
   
    97:49:00: Balanced after 1 trials
   
    97:50:00: Balanced after 1 trials
   
    97:51:00: Balanced after 1 trials
   
    97:52:00: Balanced after 1 trials
   
    97:53:00: Balanced after 1 trials
   
    97:54:00: Balanced after 1 trials
   
    97:55:00: Balanced after 1 trials
   
    97:56:00: Balanced after 1 trials
   
    97:57:00: Balanced after 1 trials
   
    97:58:00: Balanced after 1 trials
   
    97:59:00: Balanced after 1 trials
   
    98:00:00: Balanced after 3 trials
    98:00:00: Tank 2 is filling at 21.88 ft
   
    98:01:00: Balanced after 1 trials
   
    98:02:00: Balanced after 1 trials
   
    98:03:00: Balanced after 1 trials
   
    98:04:00: Balanced after 1 trials
   
    98:05:00: Balanced after 1 trials
   
    98:06:00: Balanced after 1 trials
   
    98:07:00: Balanced after 1 trials
   
    98:08:00: Balanced after 1 trials
   
    98:09:00: Balanced after 1 trials
   
    98:10:00: Balanced after 1 trials
   
    98:11:00: Balanced after 1 trials
   
    98:12:00: Balanced after 1 trials
   
    98:13:00: Balanced after 1 trials
   
    98:14:00: Balanced after 1 trials
   
    98:15:00: Balanced after 1 trials
   
    98:16:00: Balanced after 1 trials
   
    98:17:00: Balanced after 1 trials
   
    98:18:00: Balanced after 1 trials
   
    98:19:00: Balanced after 1 trials
   
    98:20:00: Balanced after 1 trials
   
    98:21:00: Balanced after 1 trials
   
    98:22:00: Balanced after 1 trials
   
    98:23:00: Balanced after 1 trials
   
    98:24:00: Balanced after 1 trials
   
    98:25:00: Balanced after 1 trials
   
    98:26:00: Balanced after 1 trials
   
    98:27:00: Balanced after 1 trials
   
    98:28:00: Balanced after 1 trials
   
    98:29:00: Balanced after 1 trials
   
    98:30:00: Balanced after 1 trials
   
    98:31:00: Balanced after 1 trials
   
    98:32:00: Balanced after 1 trials
   
    98:33:00: Balanced after 1 trials
   
    98:34:00: Balanced after 1 trials
   
    98:35:00: Balanced after 1 trials
   
    98:36:00: Balanced after 1 trials
   
    98:37:00: Balanced after 1 trials
   
    98:38:00: Balanced after 1 trials
   
    98:39:00: Balanced after 1 trials
   
    98:40:00: Balanced after 1 trials
   
    98:41:00: Balanced after 1 trials
   
    98:42:00: Balanced after 1 trials
   
    98:43:00: Balanced after 1 trials
   
    98:44:00: Balanced after 1 trials
   
    98:45:00: Balanced after 1 trials
   
    98:46:00: Balanced after 1 trials
   
    98:47:00: Balanced after 1 trials
   
    98:48:00: Balanced after 1 trials
   
    98:49:00: Balanced after 1 trials
   
    98:50:00: Balanced after 1 trials
   
    98:51:00: Balanced after 1 trials
   
    98:52:00: Balanced after 1 trials
   
    98:53:00: Balanced after 1 trials
   
    98:54:00: Balanced after 1 trials
   
    98:55:00: Balanced after 1 trials
   
    98:56:00: Balanced after 1 trials
   
    98:57:00: Balanced after 1 trials
   
    98:58:00: Balanced after 1 trials
   
    98:59:00: Balanced after 1 trials
   
    99:00:00: Balanced after 2 trials
   
    99:01:00: Balanced after 1 trials
   
    99:02:00: Balanced after 4 trials
    99:02:00: Tank 3 is emptying at 34.37 ft
    99:02:00: Pipe 330 changed from closed to open
    99:02:00: Pump 335 changed from open to closed
   
    99:03:00: Balanced after 1 trials
   
    99:04:00: Balanced after 1 trials
   
    99:05:00: Balanced after 1 trials
   
    99:06:00: Balanced after 1 trials
   
    99:07:00: Balanced after 1 trials
   
    99:08:00: Balanced after 1 trials
   
    99:09:00: Balanced after 1 trials
   
    99:10:00: Balanced after 1 trials
   
    99:11:00: Balanced after 1 trials
   
    99:12:00: Balanced after 1 trials
   
    99:13:00: Balanced after 1 trials
   
    99:14:00: Balanced after 1 trials
   
    99:15:00: Balanced after 1 trials
   
    99:16:00: Balanced after 1 trials
   
    99:17:00: Balanced after 1 trials
   
    99:18:00: Balanced after 1 trials
   
    99:19:00: Balanced after 1 trials
   
    99:20:00: Balanced after 1 trials
   
    99:21:00: Balanced after 1 trials
   
    99:22:00: Balanced after 1 trials
   
    99:23:00: Balanced after 1 trials
   
    99:24:00: Balanced after 1 trials
   
    99:25:00: Balanced after 1 trials
   
    99:26:00: Balanced after 1 trials
   
    99:27:00: Balanced after 1 trials
   
    99:28:00: Balanced after 1 trials
   
    99:29:00: Balanced after 1 trials
   
    99:30:00: Balanced after 1 trials
   
    99:31:00: Balanced after 1 trials
   
    99:32:00: Balanced after 1 trials
   
    99:33:00: Balanced after 1 trials
   
    99:34:00: Balanced after 1 trials
   
    99:35:00: Balanced after 1 trials
   
    99:36:00: Balanced after 1 trials
   
    99:37:00: Balanced after 1 trials
   
    99:38:00: Balanced after 1 trials
   
    99:39:00: Balanced after 1 trials
   
    99:40:00: Balanced after 1 trials
   
    99:41:00: Balanced after 1 trials
   
    99:42:00: Balanced after 1 trials
   
    99:43:00: Balanced after 1 trials
   
    99:44:00: Balanced after 1 trials
   
    99:45:00: Balanced after 1 trials
   
    99:46:00: Balanced after 1 trials
   
    99:47:00: Balanced after 1 trials
   
    99:48:00: Balanced after 1 trials
   
    99:49:00: Balanced after 1 trials
   
    99:50:00: Balanced after 1 trials
   
    99:51:00: Balanced after 1 trials
   
    99:52:00: Balanced after 1 trials
   
    99:53:00: Balanced after 1 trials
   
    99:54:00: Balanced after 1 trials
   
    99:55:00: Balanced after 1 trials
   
    99:56:00: Balanced after 1 trials
   
    99:57:00: Balanced after 1 trials
   
    99:58:00: Balanced after 1 trials
   
    99:59:00: Balanced after 1 trials
   
   100:00:00: Balanced after 3 trials
   100:00:00: Tank 3 is filling at 34.17 ft
   
  Water Quality Mass Balance (mg)
  ================================
  Initial Mass:       0.00000e+00
  Mass Inflow:        1.56124e+08
  Mass Outflow:       1.46267e+08
  Mass Reacted:       0.00000e+00
  Final Mass:         9.85680e+06
  Mass Ratio:         1.00000
  ================================

  Analysis ended Mon Sep 20 12:08:58 2021
